version 3
run General-0-20241105-09:28:57-20108
attr configname General
attr datetime 20241105-09:28:57
attr datetimef 20241105-092857
attr experiment General
attr inifile omnetpp.ini
attr iterationvars ""
attr iterationvarsd ""
attr iterationvarsf ""
attr measurement ""
attr network Ethnet
attr processid 20108
attr repetition 0
attr replication #0
attr resultdir results
attr runnumber 0
attr seedset 0
config image-path ../../../../Users/Student/Downloads/inet-4.5.3-src/inet4.5/images
config network Ethnet
config sim-time-limit 100s
config **.client.numApps 1
config **.client.app[0].typename TcpSessionApp
config **.client.app[0].connectAddress "\"server\""
config **.client.app[0].connectPort 1000
config **.client.app[0].sendBytes 1MB
config **.client1.numApps 1
config **.client1.app[0].typename TcpSessionApp
config **.client1.app[0].connectAddress "\"server\""
config **.client1.app[0].connectPort 1001
config **.client1.app[0].sendBytes 1MB
config **.client2.numApps 1
config **.client2.app[0].typename TcpSessionApp
config **.client2.app[0].connectAddress "\"server\""
config **.client2.app[0].connectPort 1002
config **.client2.app[0].sendBytes 1MB
config **.client3.numApps 1
config **.client3.app[0].typename TcpSessionApp
config **.client3.app[0].connectAddress "\"server\""
config **.client3.app[0].connectPort 1003
config **.client3.app[0].sendBytes 1MB
config **.server.numApps 4
config **.server.app[0].typename TcpEchoApp
config **.server.app[0].localPort 1000
config **.server.app[1].typename TcpEchoApp
config **.server.app[1].localPort 1001
config **.server.app[2].typename TcpEchoApp
config **.server.app[2].localPort 1002
config **.server.app[3].typename TcpEchoApp
config **.server.app[3].localPort 1003

par Ethnet.server.ethg$o[0].channel typename "\"inet.node.ethernet.Eth100M\""
par Ethnet.server.ethg$o[0].channel disabled false
attr mutable ""
par Ethnet.server.ethg$o[0].channel delay 5e-08s
attr mutable ""
attr unit s
par Ethnet.server.ethg$o[0].channel datarate 1e+08bps
attr mutable ""
attr unit bps
par Ethnet.server.ethg$o[0].channel ber 0
attr mutable ""
par Ethnet.server.ethg$o[0].channel per 0
attr mutable ""
par Ethnet.server.ethg$o[0].channel length 10m
attr unit m
par Ethnet.client.ethg$o[0].channel typename "\"inet.node.ethernet.Eth100M\""
par Ethnet.client.ethg$o[0].channel disabled false
attr mutable ""
par Ethnet.client.ethg$o[0].channel delay 5e-08s
attr mutable ""
attr unit s
par Ethnet.client.ethg$o[0].channel datarate 1e+08bps
attr mutable ""
attr unit bps
par Ethnet.client.ethg$o[0].channel ber 0
attr mutable ""
par Ethnet.client.ethg$o[0].channel per 0
attr mutable ""
par Ethnet.client.ethg$o[0].channel length 10m
attr unit m
par Ethnet.server.ethg$o[1].channel typename "\"inet.node.ethernet.Eth100M\""
par Ethnet.server.ethg$o[1].channel disabled false
attr mutable ""
par Ethnet.server.ethg$o[1].channel delay 5e-08s
attr mutable ""
attr unit s
par Ethnet.server.ethg$o[1].channel datarate 1e+08bps
attr mutable ""
attr unit bps
par Ethnet.server.ethg$o[1].channel ber 0
attr mutable ""
par Ethnet.server.ethg$o[1].channel per 0
attr mutable ""
par Ethnet.server.ethg$o[1].channel length 10m
attr unit m
par Ethnet.client1.ethg$o[0].channel typename "\"inet.node.ethernet.Eth100M\""
par Ethnet.client1.ethg$o[0].channel disabled false
attr mutable ""
par Ethnet.client1.ethg$o[0].channel delay 5e-08s
attr mutable ""
attr unit s
par Ethnet.client1.ethg$o[0].channel datarate 1e+08bps
attr mutable ""
attr unit bps
par Ethnet.client1.ethg$o[0].channel ber 0
attr mutable ""
par Ethnet.client1.ethg$o[0].channel per 0
attr mutable ""
par Ethnet.client1.ethg$o[0].channel length 10m
attr unit m
par Ethnet.server.ethg$o[2].channel typename "\"inet.node.ethernet.Eth100M\""
par Ethnet.server.ethg$o[2].channel disabled false
attr mutable ""
par Ethnet.server.ethg$o[2].channel delay 5e-08s
attr mutable ""
attr unit s
par Ethnet.server.ethg$o[2].channel datarate 1e+08bps
attr mutable ""
attr unit bps
par Ethnet.server.ethg$o[2].channel ber 0
attr mutable ""
par Ethnet.server.ethg$o[2].channel per 0
attr mutable ""
par Ethnet.server.ethg$o[2].channel length 10m
attr unit m
par Ethnet.client2.ethg$o[0].channel typename "\"inet.node.ethernet.Eth100M\""
par Ethnet.client2.ethg$o[0].channel disabled false
attr mutable ""
par Ethnet.client2.ethg$o[0].channel delay 5e-08s
attr mutable ""
attr unit s
par Ethnet.client2.ethg$o[0].channel datarate 1e+08bps
attr mutable ""
attr unit bps
par Ethnet.client2.ethg$o[0].channel ber 0
attr mutable ""
par Ethnet.client2.ethg$o[0].channel per 0
attr mutable ""
par Ethnet.client2.ethg$o[0].channel length 10m
attr unit m
par Ethnet.server.ethg$o[3].channel typename "\"inet.node.ethernet.Eth100M\""
par Ethnet.server.ethg$o[3].channel disabled false
attr mutable ""
par Ethnet.server.ethg$o[3].channel delay 5e-08s
attr mutable ""
attr unit s
par Ethnet.server.ethg$o[3].channel datarate 1e+08bps
attr mutable ""
attr unit bps
par Ethnet.server.ethg$o[3].channel ber 0
attr mutable ""
par Ethnet.server.ethg$o[3].channel per 0
attr mutable ""
par Ethnet.server.ethg$o[3].channel length 10m
attr unit m
par Ethnet.client3.ethg$o[0].channel typename "\"inet.node.ethernet.Eth100M\""
par Ethnet.client3.ethg$o[0].channel disabled false
attr mutable ""
par Ethnet.client3.ethg$o[0].channel delay 5e-08s
attr mutable ""
attr unit s
par Ethnet.client3.ethg$o[0].channel datarate 1e+08bps
attr mutable ""
attr unit bps
par Ethnet.client3.ethg$o[0].channel ber 0
attr mutable ""
par Ethnet.client3.ethg$o[0].channel per 0
attr mutable ""
par Ethnet.client3.ethg$o[0].channel length 10m
attr unit m
par Ethnet.server.ethg$i[0].channel typename "\"ned.IdealChannel\""
par Ethnet.server.eth[0].phys$o.channel typename "\"ned.IdealChannel\""
par Ethnet.server.ethg$i[1].channel typename "\"ned.IdealChannel\""
par Ethnet.server.eth[1].phys$o.channel typename "\"ned.IdealChannel\""
par Ethnet.server.ethg$i[2].channel typename "\"ned.IdealChannel\""
par Ethnet.server.eth[2].phys$o.channel typename "\"ned.IdealChannel\""
par Ethnet.server.ethg$i[3].channel typename "\"ned.IdealChannel\""
par Ethnet.server.eth[3].phys$o.channel typename "\"ned.IdealChannel\""
par Ethnet.server.interfaceTable typename "\"inet.networklayer.common.InterfaceTable\""
par Ethnet.server.interfaceTable displayAddresses false
par Ethnet.server.cb typename "\"inet.common.MessageDispatcher\""
par Ethnet.server.cb displayStringTextFormat "\"processed %p pk (%l)\""
par Ethnet.server.cb forwardServiceRegistration true
par Ethnet.server.cb forwardProtocolRegistration true
par Ethnet.server.bl typename "\"inet.common.MessageDispatcher\""
par Ethnet.server.bl displayStringTextFormat "\"processed %p pk (%l)\""
par Ethnet.server.bl forwardServiceRegistration true
par Ethnet.server.bl forwardProtocolRegistration true
par Ethnet.server.ethernet typename "\"inet.linklayer.ethernet.basic.EthernetEncapsulation\""
par Ethnet.server.ethernet registerProtocol true
par Ethnet.server.ethernet interfaceTableModule "\"Ethnet.server.interfaceTable\""
par Ethnet.server.ethernet fcsMode "\"declared\""
attr enum declared,computed
par Ethnet.server.ethernet stopOperationExtraTime -1s
attr unit s
par Ethnet.server.ethernet stopOperationTimeout 2s
attr unit s
scalar Ethnet.server.ethernet decapPk:count 14948
attr interpolationmode none
attr recordingmode count
attr source decapPk
attr title "packets decapsulated, count"
scalar Ethnet.server.ethernet decapPk:sum(packetBytes) 4642824
attr interpolationmode none
attr recordingmode sum(packetBytes)
attr source decapPk
attr title "packets decapsulated, sum(packetBytes)"
scalar Ethnet.server.ethernet encapPk:count 14944
attr interpolationmode none
attr recordingmode count
attr source encapPk
attr title "packets encapsulated, count"
scalar Ethnet.server.ethernet encapPk:sum(packetBytes) 4597728
attr interpolationmode none
attr recordingmode sum(packetBytes)
attr source encapPk
attr title "packets encapsulated, sum(packetBytes)"
scalar Ethnet.server.ethernet pauseSent:count 0
attr recordingmode count
attr title "pause sent, count"
scalar Ethnet.server.ethernet pauseSent:sum 0
attr recordingmode sum
attr title "pause sent, sum"
par Ethnet.server.li typename "\"inet.common.MessageDispatcher\""
par Ethnet.server.li displayStringTextFormat "\"processed %p pk (%l)\""
par Ethnet.server.li forwardServiceRegistration true
par Ethnet.server.li forwardProtocolRegistration true
par Ethnet.server.lo[0].upperLayerIn.channel typename "\"ned.IdealChannel\""
par Ethnet.server.lo[0].lo.upperLayerOut.channel typename "\"ned.IdealChannel\""
par Ethnet.server.lo[0].lo typename "\"inet.linklayer.loopback.Loopback\""
par Ethnet.server.lo[0].lo interfaceTableModule "\"Ethnet.server.interfaceTable\""
par Ethnet.server.lo[0].lo mtu 4470B
attr unit B
scalar Ethnet.server.lo[0].lo rcvdPkFromHl:count 0
attr interpolationmode none
attr recordingmode count
attr source packetReceivedFromUpper
attr title "packets received from higher layer, count"
scalar Ethnet.server.lo[0].lo rcvdPkFromHl:sum(packetBytes) 0
attr interpolationmode none
attr recordingmode sum(packetBytes)
attr source packetReceivedFromUpper
attr title "packets received from higher layer, sum(packetBytes)"
scalar Ethnet.server.lo[0].lo passedUpPk:count 0
attr interpolationmode none
attr recordingmode count
attr source packetSentToUpper
attr title "packets passed to higher layer, count"
scalar Ethnet.server.lo[0].lo passedUpPk:sum(packetBytes) 0
attr interpolationmode none
attr recordingmode sum(packetBytes)
attr source packetSentToUpper
attr title "packets passed to higher layer, sum(packetBytes)"
par Ethnet.server.lo[0] typename "\"inet.linklayer.loopback.LoopbackInterface\""
par Ethnet.server.lo[0] displayStringTextFormat "\"%a (%i)\\n%m\""
par Ethnet.server.lo[0] recordPcap false
par Ethnet.server.lo[0] numPcapRecorders 0
par Ethnet.server.lo[0] interfaceTableModule "\"Ethnet.server.interfaceTable\""
scalar Ethnet.server.lo[0] packetDropInterfaceDown:count 0
attr interpolationmode none
attr recordingmode count
attr source packetDropReasonIsInterfaceDown(packetDropped)
attr title "packet drops: interface down, count"
scalar Ethnet.server.lo[0] packetDropInterfaceDown:sum(packetBytes) 0
attr interpolationmode none
attr recordingmode sum(packetBytes)
attr source packetDropReasonIsInterfaceDown(packetDropped)
attr title "packet drops: interface down, sum(packetBytes)"
scalar Ethnet.server.lo[0] packetDropNoCarrier:count 0
attr interpolationmode none
attr recordingmode count
attr source packetDropReasonIsNoCarrier(packetDropped)
attr title "packet drops: no carrier, count"
scalar Ethnet.server.lo[0] packetDropNoCarrier:sum(packetBytes) 0
attr interpolationmode none
attr recordingmode sum(packetBytes)
attr source packetDropReasonIsNoCarrier(packetDropped)
attr title "packet drops: no carrier, sum(packetBytes)"
par Ethnet.server.eth[0].mac.phys$o.channel typename "\"ned.IdealChannel\""
par Ethnet.server.eth[0].phys$i.channel typename "\"ned.IdealChannel\""
par Ethnet.server.eth[0].upperLayerIn.channel typename "\"ned.IdealChannel\""
par Ethnet.server.eth[0].mac.upperLayerOut.channel typename "\"ned.IdealChannel\""
par Ethnet.server.eth[0].queue typename "\"inet.linklayer.ethernet.common.EthernetQueue\""
par Ethnet.server.eth[0].queue displayStringTextFormat "\"contains %p pk (%l) pushed %u\\npulled %o removed %r dropped %d\""
par Ethnet.server.eth[0].queue packetCapacity 1000
par Ethnet.server.eth[0].queue dataCapacity -1b
attr unit b
par Ethnet.server.eth[0].queue dropperClass "\"inet::queueing::PacketAtCollectionEndDropper\""
par Ethnet.server.eth[0].queue comparatorClass "\"inet::EthernetFrameTypeComparator\""
par Ethnet.server.eth[0].queue bufferModule "\"\""
scalar Ethnet.server.eth[0].queue queueLength:last 0
attr autoWarmupFilter false
attr interpolationmode sample-hold
attr recordingmode last
attr source "warmup(atomic(constant0(packetPushEnded) + count(packetPushStarted) - count(packetPulled) - count(packetRemoved) - count(packetDropped)))"
attr title "queue length, last"
attr unit pk
scalar Ethnet.server.eth[0].queue queueLength:max 14
attr autoWarmupFilter false
attr interpolationmode sample-hold
attr recordingmode max
attr source "warmup(atomic(constant0(packetPushEnded) + count(packetPushStarted) - count(packetPulled) - count(packetRemoved) - count(packetDropped)))"
attr title "queue length, max"
attr unit pk
scalar Ethnet.server.eth[0].queue queueLength:timeavg 0.011687302599999
attr autoWarmupFilter false
attr interpolationmode sample-hold
attr recordingmode timeavg
attr source "warmup(atomic(constant0(packetPushEnded) + count(packetPushStarted) - count(packetPulled) - count(packetRemoved) - count(packetDropped)))"
attr title "queue length, timeavg"
attr unit pk
scalar Ethnet.server.eth[0].queue queueBitLength:last 0
attr autoWarmupFilter false
attr interpolationmode sample-hold
attr recordingmode last
attr source "warmup(atomic(constant0(packetPushEnded) + sum(packetLength(packetPushStarted)) - sum(packetLength(packetPulled)) - sum(packetLength(packetRemoved)) - sum(packetLength(packetDropped))))"
attr title "queue bit length, last"
attr unit b
scalar Ethnet.server.eth[0].queue queueBitLength:max 61776
attr autoWarmupFilter false
attr interpolationmode sample-hold
attr recordingmode max
attr source "warmup(atomic(constant0(packetPushEnded) + sum(packetLength(packetPushStarted)) - sum(packetLength(packetPulled)) - sum(packetLength(packetRemoved)) - sum(packetLength(packetDropped))))"
attr title "queue bit length, max"
attr unit b
scalar Ethnet.server.eth[0].queue queueBitLength:timeavg 30.565679696
attr autoWarmupFilter false
attr interpolationmode sample-hold
attr recordingmode timeavg
attr source "warmup(atomic(constant0(packetPushEnded) + sum(packetLength(packetPushStarted)) - sum(packetLength(packetPulled)) - sum(packetLength(packetRemoved)) - sum(packetLength(packetDropped))))"
attr title "queue bit length, timeavg"
attr unit b
statistic Ethnet.server.eth[0].queue queueingTime:histogram
field count 3736
field mean 0.00031282929871519
field stddev 0.00017265985702701
field min 0
field max 0.00059152
field sum 1.16873026
field sqrsum 0.0004769587445868
attr interpolationmode none
attr recordingmode histogram
attr source queueingTime(packetPulled)
attr title "queueing times"
attr unit s
bin	-inf	0
bin	0	26
bin	1e-05	1
bin	2e-05	1
bin	3e-05	0
bin	4e-05	267
bin	5e-05	1
bin	6e-05	2
bin	7e-05	0
bin	8e-05	262
bin	9e-05	4
bin	0.0001	0
bin	0.00011	1
bin	0.00012	262
bin	0.00013	0
bin	0.00014	4
bin	0.00015	1
bin	0.00016	262
bin	0.00017	0
bin	0.00018	2
bin	0.00019	1
bin	0.0002	262
bin	0.00021	0
bin	0.00022	0
bin	0.00023	3
bin	0.00024	0
bin	0.00025	262
bin	0.00026	0
bin	0.00027	2
bin	0.00028	1
bin	0.00029	262
bin	0.0003	0
bin	0.00031	0
bin	0.00032	3
bin	0.00033	262
bin	0.00034	0
bin	0.00035	0
bin	0.00036	1
bin	0.00037	262
bin	0.00038	0
bin	0.00039	0
bin	0.0004	0
bin	0.00041	1
bin	0.00042	262
bin	0.00043	0
bin	0.00044	0
bin	0.00045	1
bin	0.00046	262
bin	0.00047	0
bin	0.00048	0
bin	0.00049	0
bin	0.0005	263
bin	0.00051	0
bin	0.00052	0
bin	0.00053	0
bin	0.00054	265
bin	0.00055	0
bin	0.00056	0
bin	0.00057	0
bin	0.00058	0
bin	0.00059	265
bin	0.0006	0
bin	0.00061	0
bin	0.00062	0
bin	0.00063	0
bin	0.00064	0
bin	0.00065	0
bin	0.00066	0
bin	0.00067	0
bin	0.00068	0
bin	0.00069	0
bin	0.0007	0
bin	0.00071	0
bin	0.00072	0
bin	0.00073	0
bin	0.00074	0
scalar Ethnet.server.eth[0].queue outgoingPackets:count 3736
attr recordingmode count
attr source packetPulled
attr title "outgoing packets, count"
attr unit pk
scalar Ethnet.server.eth[0].queue outgoingPacketLengths:sum 9733440
attr interpolationmode none
attr recordingmode sum
attr source packetLength(packetPulled)
attr title "outgoing packet lengths, sum"
attr unit b
statistic Ethnet.server.eth[0].queue outgoingPacketLengths:histogram
field count 3736
field mean 2605.3104925054
field stddev 2144.0499094965
field min 368
field max 4752
field sum 9733440
field sqrsum 42528241664
attr interpolationmode none
attr recordingmode histogram
attr source packetLength(packetPulled)
attr title "outgoing packet lengths"
attr unit b
bin	-inf	0
bin	0	0
bin	100	0
bin	200	0
bin	300	1
bin	400	1869
bin	500	0
bin	600	0
bin	700	0
bin	800	0
bin	900	0
bin	1000	0
bin	1100	0
bin	1200	0
bin	1300	0
bin	1400	0
bin	1500	0
bin	1600	0
bin	1700	0
bin	1800	0
bin	1900	0
bin	2000	0
bin	2100	0
bin	2200	0
bin	2300	0
bin	2400	0
bin	2500	0
bin	2600	0
bin	2700	0
bin	2800	0
bin	2900	0
bin	3000	0
bin	3100	0
bin	3200	0
bin	3300	1
bin	3400	0
bin	3500	0
bin	3600	0
bin	3700	0
bin	3800	0
bin	3900	0
bin	4000	0
bin	4100	0
bin	4200	0
bin	4300	0
bin	4400	0
bin	4500	0
bin	4600	0
bin	4700	1865
bin	4800	0
bin	4900	0
bin	5000	0
bin	5100	0
bin	5200	0
bin	5300	0
bin	5400	0
bin	5500	0
bin	5600	0
bin	5700	0
bin	5800	0
bin	5900	0
statistic Ethnet.server.eth[0].queue flowQueueingTime:histogram
field count 0
field mean nan
field stddev nan
field min nan
field max nan
field sum 0
field sqrsum 0
attr interpolationmode none
attr recordingmode histogram
attr source queueingTime(demuxFlow(packetPulled))
attr title "flow queueing times"
attr unit s
bin	-inf	0
bin	0	0
bin	1	0
scalar Ethnet.server.eth[0].queue incomingPackets:count 3736
attr recordingmode count
attr source packetPushStarted
attr title "incoming packets, count"
attr unit pk
scalar Ethnet.server.eth[0].queue incomingPacketLengths:sum 9733440
attr interpolationmode none
attr recordingmode sum
attr source packetLength(packetPushStarted)
attr title "incoming packet lengths, sum"
attr unit b
statistic Ethnet.server.eth[0].queue incomingPacketLengths:histogram
field count 3736
field mean 2605.3104925054
field stddev 2144.0499094965
field min 368
field max 4752
field sum 9733440
field sqrsum 42528241664
attr interpolationmode none
attr recordingmode histogram
attr source packetLength(packetPushStarted)
attr title "incoming packet lengths"
attr unit b
bin	-inf	0
bin	0	0
bin	100	0
bin	200	0
bin	300	1
bin	400	1869
bin	500	0
bin	600	0
bin	700	0
bin	800	0
bin	900	0
bin	1000	0
bin	1100	0
bin	1200	0
bin	1300	0
bin	1400	0
bin	1500	0
bin	1600	0
bin	1700	0
bin	1800	0
bin	1900	0
bin	2000	0
bin	2100	0
bin	2200	0
bin	2300	0
bin	2400	0
bin	2500	0
bin	2600	0
bin	2700	0
bin	2800	0
bin	2900	0
bin	3000	0
bin	3100	0
bin	3200	0
bin	3300	1
bin	3400	0
bin	3500	0
bin	3600	0
bin	3700	0
bin	3800	0
bin	3900	0
bin	4000	0
bin	4100	0
bin	4200	0
bin	4300	0
bin	4400	0
bin	4500	0
bin	4600	0
bin	4700	1865
bin	4800	0
bin	4900	0
bin	5000	0
bin	5100	0
bin	5200	0
bin	5300	0
bin	5400	0
bin	5500	0
bin	5600	0
bin	5700	0
bin	5800	0
bin	5900	0
scalar Ethnet.server.eth[0].queue droppedPacketsQueueOverflow:count 0
attr interpolationmode none
attr recordingmode count
attr source packetDropReasonIsQueueOverflow(packetDropped)
attr title "dropped packets: queue overflow, count"
attr unit pk
scalar Ethnet.server.eth[0].queue droppedPacketLengthsQueueOverflow:sum 0
attr interpolationmode none
attr recordingmode sum
attr source packetLength(packetDropReasonIsQueueOverflow(packetDropped))
attr title "dropped packet lengths: queue overflow, sum"
attr unit b
par Ethnet.server.eth[0].mac typename "\"inet.linklayer.ethernet.basic.EthernetMac\""
par Ethnet.server.eth[0].mac interfaceTableModule "\"Ethnet.server.interfaceTable\""
par Ethnet.server.eth[0].mac displayStringTextFormat "\"rate: %b\\nsent: %s, rcvd: %r\\nqueue: %q, drop: %d\""
par Ethnet.server.eth[0].mac sendRawBytes false
par Ethnet.server.eth[0].mac promiscuous false
par Ethnet.server.eth[0].mac duplexMode true
par Ethnet.server.eth[0].mac mtu 1500B
attr unit B
par Ethnet.server.eth[0].mac fcsMode "\"declared\""
attr enum declared,computed
par Ethnet.server.eth[0].mac stopOperationExtraTime -1s
attr unit s
par Ethnet.server.eth[0].mac stopOperationTimeout 2s
attr unit s
scalar Ethnet.server.eth[0].mac "simulated time" 100
scalar Ethnet.server.eth[0].mac full-duplex 1
scalar Ethnet.server.eth[0].mac "frames/sec sent" 37.36
scalar Ethnet.server.eth[0].mac "frames/sec rcvd" 37.37
scalar Ethnet.server.eth[0].mac "bits/sec sent" 98232.64
scalar Ethnet.server.eth[0].mac "bits/sec rcvd" 98237.76
scalar Ethnet.server.eth[0].mac "rx channel idle (%)" 99.89937056
scalar Ethnet.server.eth[0].mac "rx channel utilization (%)" 0.10062944
scalar Ethnet.server.eth[0].mac txPk:count 3736
attr interpolationmode none
attr recordingmode count
attr source packetSentToLower
attr title "packets transmitted, count"
scalar Ethnet.server.eth[0].mac txPk:sum(packetBytes) 1227908
attr interpolationmode none
attr recordingmode sum(packetBytes)
attr source packetSentToLower
attr title "packets transmitted, sum(packetBytes)"
scalar Ethnet.server.eth[0].mac packetReceivedFromUpper:count 3736
attr interpolationmode none
attr recordingmode count
attr source packetReceivedFromUpper
attr title "packet bytes from higher layer, count"
scalar Ethnet.server.eth[0].mac packetReceivedFromUpper:sum(packetBytes) 1216680
attr interpolationmode none
attr recordingmode sum(packetBytes)
attr source packetReceivedFromUpper
attr title "packet bytes from higher layer, sum(packetBytes)"
scalar Ethnet.server.eth[0].mac passedUpPk:count 3737
attr interpolationmode none
attr recordingmode count
attr source packetSentToUpper
attr title "packets passed to higher layer, count"
scalar Ethnet.server.eth[0].mac passedUpPk:sum(packetBytes) 1227972
attr interpolationmode none
attr recordingmode sum(packetBytes)
attr source packetSentToUpper
attr title "packets passed to higher layer, sum(packetBytes)"
scalar Ethnet.server.eth[0].mac packetDropIncorrectlyReceived:count 0
attr interpolationmode none
attr recordingmode count
attr source packetDropReasonIsIncorrectlyReceived(packetDropped)
attr title "packet drop: incorrectly received, count"
scalar Ethnet.server.eth[0].mac packetDropIncorrectlyReceived:sum(packetBytes) 0
attr interpolationmode none
attr recordingmode sum(packetBytes)
attr source packetDropReasonIsIncorrectlyReceived(packetDropped)
attr title "packet drop: incorrectly received, sum(packetBytes)"
scalar Ethnet.server.eth[0].mac packetDropInterfaceDown:count 0
attr interpolationmode none
attr recordingmode count
attr source packetDropReasonIsInterfaceDown(packetDropped)
attr title "packet drop: interface down, count"
scalar Ethnet.server.eth[0].mac packetDropInterfaceDown:sum(packetBytes) 0
attr interpolationmode none
attr recordingmode sum(packetBytes)
attr source packetDropReasonIsInterfaceDown(packetDropped)
attr title "packet drop: interface down, sum(packetBytes)"
scalar Ethnet.server.eth[0].mac packetDropNotAddressedToUs:count 0
attr interpolationmode none
attr recordingmode count
attr source packetDropReasonIsNotAddressedToUs(packetDropped)
attr title "packet drop: not addressed to us, count"
scalar Ethnet.server.eth[0].mac packetDropNotAddressedToUs:sum(packetBytes) 0
attr interpolationmode none
attr recordingmode sum(packetBytes)
attr source packetDropReasonIsNotAddressedToUs(packetDropped)
attr title "packet drop: not addressed to us, sum(packetBytes)"
scalar Ethnet.server.eth[0].mac rxPausePkUnits:count 0
attr interpolationmode none
attr recordingmode count
attr title "pause units received, count"
scalar Ethnet.server.eth[0].mac rxPausePkUnits:sum 0
attr interpolationmode none
attr recordingmode sum
attr title "pause units received, sum"
scalar Ethnet.server.eth[0].mac txPausePkUnits:count 0
attr interpolationmode none
attr recordingmode count
attr title "pause units sent, count"
scalar Ethnet.server.eth[0].mac txPausePkUnits:sum 0
attr interpolationmode none
attr recordingmode sum
attr title "pause units sent, sum"
scalar Ethnet.server.eth[0].mac rxPkOk:count 3737
attr interpolationmode none
attr recordingmode count
attr source rxPkOk
attr title "packets received OK, count"
scalar Ethnet.server.eth[0].mac rxPkOk:sum(packetBytes) 1227972
attr interpolationmode none
attr recordingmode sum(packetBytes)
attr source rxPkOk
attr title "packets received OK, sum(packetBytes)"
par Ethnet.server.eth[0] typename "\"inet.linklayer.ethernet.EthernetInterface\""
par Ethnet.server.eth[0] displayStringTextFormat "\"%a (%i)\\n%m\""
par Ethnet.server.eth[0] recordPcap false
par Ethnet.server.eth[0] numPcapRecorders 0
par Ethnet.server.eth[0] interfaceTableModule "\"Ethnet.server.interfaceTable\""
par Ethnet.server.eth[0] protocol "\"ethernetmac\""
par Ethnet.server.eth[0] address "\"0A-AA-00-00-00-01\""
attr mutable ""
par Ethnet.server.eth[0] duplexMode true
par Ethnet.server.eth[0] csmacdSupport false
par Ethnet.server.eth[0] bitrate 0bps
attr unit bps
par Ethnet.server.eth[0] fcsMode "\"declared\""
attr enum declared,computed
scalar Ethnet.server.eth[0] packetDropInterfaceDown:count 0
attr interpolationmode none
attr recordingmode count
attr source packetDropReasonIsInterfaceDown(packetDropped)
attr title "packet drops: interface down, count"
scalar Ethnet.server.eth[0] packetDropInterfaceDown:sum(packetBytes) 0
attr interpolationmode none
attr recordingmode sum(packetBytes)
attr source packetDropReasonIsInterfaceDown(packetDropped)
attr title "packet drops: interface down, sum(packetBytes)"
scalar Ethnet.server.eth[0] packetDropNoCarrier:count 0
attr interpolationmode none
attr recordingmode count
attr source packetDropReasonIsNoCarrier(packetDropped)
attr title "packet drops: no carrier, count"
scalar Ethnet.server.eth[0] packetDropNoCarrier:sum(packetBytes) 0
attr interpolationmode none
attr recordingmode sum(packetBytes)
attr source packetDropReasonIsNoCarrier(packetDropped)
attr title "packet drops: no carrier, sum(packetBytes)"
par Ethnet.server.eth[1].mac.phys$o.channel typename "\"ned.IdealChannel\""
par Ethnet.server.eth[1].phys$i.channel typename "\"ned.IdealChannel\""
par Ethnet.server.eth[1].upperLayerIn.channel typename "\"ned.IdealChannel\""
par Ethnet.server.eth[1].mac.upperLayerOut.channel typename "\"ned.IdealChannel\""
par Ethnet.server.eth[1].queue typename "\"inet.linklayer.ethernet.common.EthernetQueue\""
par Ethnet.server.eth[1].queue displayStringTextFormat "\"contains %p pk (%l) pushed %u\\npulled %o removed %r dropped %d\""
par Ethnet.server.eth[1].queue packetCapacity 1000
par Ethnet.server.eth[1].queue dataCapacity -1b
attr unit b
par Ethnet.server.eth[1].queue dropperClass "\"inet::queueing::PacketAtCollectionEndDropper\""
par Ethnet.server.eth[1].queue comparatorClass "\"inet::EthernetFrameTypeComparator\""
par Ethnet.server.eth[1].queue bufferModule "\"\""
scalar Ethnet.server.eth[1].queue queueLength:last 0
attr autoWarmupFilter false
attr interpolationmode sample-hold
attr recordingmode last
attr source "warmup(atomic(constant0(packetPushEnded) + count(packetPushStarted) - count(packetPulled) - count(packetRemoved) - count(packetDropped)))"
attr title "queue length, last"
attr unit pk
scalar Ethnet.server.eth[1].queue queueLength:max 14
attr autoWarmupFilter false
attr interpolationmode sample-hold
attr recordingmode max
attr source "warmup(atomic(constant0(packetPushEnded) + count(packetPushStarted) - count(packetPulled) - count(packetRemoved) - count(packetDropped)))"
attr title "queue length, max"
attr unit pk
scalar Ethnet.server.eth[1].queue queueLength:timeavg 0.011687302599999
attr autoWarmupFilter false
attr interpolationmode sample-hold
attr recordingmode timeavg
attr source "warmup(atomic(constant0(packetPushEnded) + count(packetPushStarted) - count(packetPulled) - count(packetRemoved) - count(packetDropped)))"
attr title "queue length, timeavg"
attr unit pk
scalar Ethnet.server.eth[1].queue queueBitLength:last 0
attr autoWarmupFilter false
attr interpolationmode sample-hold
attr recordingmode last
attr source "warmup(atomic(constant0(packetPushEnded) + sum(packetLength(packetPushStarted)) - sum(packetLength(packetPulled)) - sum(packetLength(packetRemoved)) - sum(packetLength(packetDropped))))"
attr title "queue bit length, last"
attr unit b
scalar Ethnet.server.eth[1].queue queueBitLength:max 61776
attr autoWarmupFilter false
attr interpolationmode sample-hold
attr recordingmode max
attr source "warmup(atomic(constant0(packetPushEnded) + sum(packetLength(packetPushStarted)) - sum(packetLength(packetPulled)) - sum(packetLength(packetRemoved)) - sum(packetLength(packetDropped))))"
attr title "queue bit length, max"
attr unit b
scalar Ethnet.server.eth[1].queue queueBitLength:timeavg 30.565679696
attr autoWarmupFilter false
attr interpolationmode sample-hold
attr recordingmode timeavg
attr source "warmup(atomic(constant0(packetPushEnded) + sum(packetLength(packetPushStarted)) - sum(packetLength(packetPulled)) - sum(packetLength(packetRemoved)) - sum(packetLength(packetDropped))))"
attr title "queue bit length, timeavg"
attr unit b
statistic Ethnet.server.eth[1].queue queueingTime:histogram
field count 3736
field mean 0.00031282929871519
field stddev 0.00017265985702701
field min 0
field max 0.00059152
field sum 1.16873026
field sqrsum 0.0004769587445868
attr interpolationmode none
attr recordingmode histogram
attr source queueingTime(packetPulled)
attr title "queueing times"
attr unit s
bin	-inf	0
bin	0	26
bin	1e-05	1
bin	2e-05	1
bin	3e-05	0
bin	4e-05	267
bin	5e-05	1
bin	6e-05	2
bin	7e-05	0
bin	8e-05	262
bin	9e-05	4
bin	0.0001	0
bin	0.00011	1
bin	0.00012	262
bin	0.00013	0
bin	0.00014	4
bin	0.00015	1
bin	0.00016	262
bin	0.00017	0
bin	0.00018	2
bin	0.00019	1
bin	0.0002	262
bin	0.00021	0
bin	0.00022	0
bin	0.00023	3
bin	0.00024	0
bin	0.00025	262
bin	0.00026	0
bin	0.00027	2
bin	0.00028	1
bin	0.00029	262
bin	0.0003	0
bin	0.00031	0
bin	0.00032	3
bin	0.00033	262
bin	0.00034	0
bin	0.00035	0
bin	0.00036	1
bin	0.00037	262
bin	0.00038	0
bin	0.00039	0
bin	0.0004	0
bin	0.00041	1
bin	0.00042	262
bin	0.00043	0
bin	0.00044	0
bin	0.00045	1
bin	0.00046	262
bin	0.00047	0
bin	0.00048	0
bin	0.00049	0
bin	0.0005	263
bin	0.00051	0
bin	0.00052	0
bin	0.00053	0
bin	0.00054	265
bin	0.00055	0
bin	0.00056	0
bin	0.00057	0
bin	0.00058	0
bin	0.00059	265
bin	0.0006	0
bin	0.00061	0
bin	0.00062	0
bin	0.00063	0
bin	0.00064	0
bin	0.00065	0
bin	0.00066	0
bin	0.00067	0
bin	0.00068	0
bin	0.00069	0
bin	0.0007	0
bin	0.00071	0
bin	0.00072	0
bin	0.00073	0
bin	0.00074	0
scalar Ethnet.server.eth[1].queue outgoingPackets:count 3736
attr recordingmode count
attr source packetPulled
attr title "outgoing packets, count"
attr unit pk
scalar Ethnet.server.eth[1].queue outgoingPacketLengths:sum 9733440
attr interpolationmode none
attr recordingmode sum
attr source packetLength(packetPulled)
attr title "outgoing packet lengths, sum"
attr unit b
statistic Ethnet.server.eth[1].queue outgoingPacketLengths:histogram
field count 3736
field mean 2605.3104925054
field stddev 2144.0499094965
field min 368
field max 4752
field sum 9733440
field sqrsum 42528241664
attr interpolationmode none
attr recordingmode histogram
attr source packetLength(packetPulled)
attr title "outgoing packet lengths"
attr unit b
bin	-inf	0
bin	0	0
bin	100	0
bin	200	0
bin	300	1
bin	400	1869
bin	500	0
bin	600	0
bin	700	0
bin	800	0
bin	900	0
bin	1000	0
bin	1100	0
bin	1200	0
bin	1300	0
bin	1400	0
bin	1500	0
bin	1600	0
bin	1700	0
bin	1800	0
bin	1900	0
bin	2000	0
bin	2100	0
bin	2200	0
bin	2300	0
bin	2400	0
bin	2500	0
bin	2600	0
bin	2700	0
bin	2800	0
bin	2900	0
bin	3000	0
bin	3100	0
bin	3200	0
bin	3300	1
bin	3400	0
bin	3500	0
bin	3600	0
bin	3700	0
bin	3800	0
bin	3900	0
bin	4000	0
bin	4100	0
bin	4200	0
bin	4300	0
bin	4400	0
bin	4500	0
bin	4600	0
bin	4700	1865
bin	4800	0
bin	4900	0
bin	5000	0
bin	5100	0
bin	5200	0
bin	5300	0
bin	5400	0
bin	5500	0
bin	5600	0
bin	5700	0
bin	5800	0
bin	5900	0
statistic Ethnet.server.eth[1].queue flowQueueingTime:histogram
field count 0
field mean nan
field stddev nan
field min nan
field max nan
field sum 0
field sqrsum 0
attr interpolationmode none
attr recordingmode histogram
attr source queueingTime(demuxFlow(packetPulled))
attr title "flow queueing times"
attr unit s
bin	-inf	0
bin	0	0
bin	1	0
scalar Ethnet.server.eth[1].queue incomingPackets:count 3736
attr recordingmode count
attr source packetPushStarted
attr title "incoming packets, count"
attr unit pk
scalar Ethnet.server.eth[1].queue incomingPacketLengths:sum 9733440
attr interpolationmode none
attr recordingmode sum
attr source packetLength(packetPushStarted)
attr title "incoming packet lengths, sum"
attr unit b
statistic Ethnet.server.eth[1].queue incomingPacketLengths:histogram
field count 3736
field mean 2605.3104925054
field stddev 2144.0499094965
field min 368
field max 4752
field sum 9733440
field sqrsum 42528241664
attr interpolationmode none
attr recordingmode histogram
attr source packetLength(packetPushStarted)
attr title "incoming packet lengths"
attr unit b
bin	-inf	0
bin	0	0
bin	100	0
bin	200	0
bin	300	1
bin	400	1869
bin	500	0
bin	600	0
bin	700	0
bin	800	0
bin	900	0
bin	1000	0
bin	1100	0
bin	1200	0
bin	1300	0
bin	1400	0
bin	1500	0
bin	1600	0
bin	1700	0
bin	1800	0
bin	1900	0
bin	2000	0
bin	2100	0
bin	2200	0
bin	2300	0
bin	2400	0
bin	2500	0
bin	2600	0
bin	2700	0
bin	2800	0
bin	2900	0
bin	3000	0
bin	3100	0
bin	3200	0
bin	3300	1
bin	3400	0
bin	3500	0
bin	3600	0
bin	3700	0
bin	3800	0
bin	3900	0
bin	4000	0
bin	4100	0
bin	4200	0
bin	4300	0
bin	4400	0
bin	4500	0
bin	4600	0
bin	4700	1865
bin	4800	0
bin	4900	0
bin	5000	0
bin	5100	0
bin	5200	0
bin	5300	0
bin	5400	0
bin	5500	0
bin	5600	0
bin	5700	0
bin	5800	0
bin	5900	0
scalar Ethnet.server.eth[1].queue droppedPacketsQueueOverflow:count 0
attr interpolationmode none
attr recordingmode count
attr source packetDropReasonIsQueueOverflow(packetDropped)
attr title "dropped packets: queue overflow, count"
attr unit pk
scalar Ethnet.server.eth[1].queue droppedPacketLengthsQueueOverflow:sum 0
attr interpolationmode none
attr recordingmode sum
attr source packetLength(packetDropReasonIsQueueOverflow(packetDropped))
attr title "dropped packet lengths: queue overflow, sum"
attr unit b
par Ethnet.server.eth[1].mac typename "\"inet.linklayer.ethernet.basic.EthernetMac\""
par Ethnet.server.eth[1].mac interfaceTableModule "\"Ethnet.server.interfaceTable\""
par Ethnet.server.eth[1].mac displayStringTextFormat "\"rate: %b\\nsent: %s, rcvd: %r\\nqueue: %q, drop: %d\""
par Ethnet.server.eth[1].mac sendRawBytes false
par Ethnet.server.eth[1].mac promiscuous false
par Ethnet.server.eth[1].mac duplexMode true
par Ethnet.server.eth[1].mac mtu 1500B
attr unit B
par Ethnet.server.eth[1].mac fcsMode "\"declared\""
attr enum declared,computed
par Ethnet.server.eth[1].mac stopOperationExtraTime -1s
attr unit s
par Ethnet.server.eth[1].mac stopOperationTimeout 2s
attr unit s
scalar Ethnet.server.eth[1].mac "simulated time" 100
scalar Ethnet.server.eth[1].mac full-duplex 1
scalar Ethnet.server.eth[1].mac "frames/sec sent" 37.36
scalar Ethnet.server.eth[1].mac "frames/sec rcvd" 37.37
scalar Ethnet.server.eth[1].mac "bits/sec sent" 98232.64
scalar Ethnet.server.eth[1].mac "bits/sec rcvd" 98237.76
scalar Ethnet.server.eth[1].mac "rx channel idle (%)" 99.89937056
scalar Ethnet.server.eth[1].mac "rx channel utilization (%)" 0.10062944
scalar Ethnet.server.eth[1].mac txPk:count 3736
attr interpolationmode none
attr recordingmode count
attr source packetSentToLower
attr title "packets transmitted, count"
scalar Ethnet.server.eth[1].mac txPk:sum(packetBytes) 1227908
attr interpolationmode none
attr recordingmode sum(packetBytes)
attr source packetSentToLower
attr title "packets transmitted, sum(packetBytes)"
scalar Ethnet.server.eth[1].mac packetReceivedFromUpper:count 3736
attr interpolationmode none
attr recordingmode count
attr source packetReceivedFromUpper
attr title "packet bytes from higher layer, count"
scalar Ethnet.server.eth[1].mac packetReceivedFromUpper:sum(packetBytes) 1216680
attr interpolationmode none
attr recordingmode sum(packetBytes)
attr source packetReceivedFromUpper
attr title "packet bytes from higher layer, sum(packetBytes)"
scalar Ethnet.server.eth[1].mac passedUpPk:count 3737
attr interpolationmode none
attr recordingmode count
attr source packetSentToUpper
attr title "packets passed to higher layer, count"
scalar Ethnet.server.eth[1].mac passedUpPk:sum(packetBytes) 1227972
attr interpolationmode none
attr recordingmode sum(packetBytes)
attr source packetSentToUpper
attr title "packets passed to higher layer, sum(packetBytes)"
scalar Ethnet.server.eth[1].mac packetDropIncorrectlyReceived:count 0
attr interpolationmode none
attr recordingmode count
attr source packetDropReasonIsIncorrectlyReceived(packetDropped)
attr title "packet drop: incorrectly received, count"
scalar Ethnet.server.eth[1].mac packetDropIncorrectlyReceived:sum(packetBytes) 0
attr interpolationmode none
attr recordingmode sum(packetBytes)
attr source packetDropReasonIsIncorrectlyReceived(packetDropped)
attr title "packet drop: incorrectly received, sum(packetBytes)"
scalar Ethnet.server.eth[1].mac packetDropInterfaceDown:count 0
attr interpolationmode none
attr recordingmode count
attr source packetDropReasonIsInterfaceDown(packetDropped)
attr title "packet drop: interface down, count"
scalar Ethnet.server.eth[1].mac packetDropInterfaceDown:sum(packetBytes) 0
attr interpolationmode none
attr recordingmode sum(packetBytes)
attr source packetDropReasonIsInterfaceDown(packetDropped)
attr title "packet drop: interface down, sum(packetBytes)"
scalar Ethnet.server.eth[1].mac packetDropNotAddressedToUs:count 0
attr interpolationmode none
attr recordingmode count
attr source packetDropReasonIsNotAddressedToUs(packetDropped)
attr title "packet drop: not addressed to us, count"
scalar Ethnet.server.eth[1].mac packetDropNotAddressedToUs:sum(packetBytes) 0
attr interpolationmode none
attr recordingmode sum(packetBytes)
attr source packetDropReasonIsNotAddressedToUs(packetDropped)
attr title "packet drop: not addressed to us, sum(packetBytes)"
scalar Ethnet.server.eth[1].mac rxPausePkUnits:count 0
attr interpolationmode none
attr recordingmode count
attr title "pause units received, count"
scalar Ethnet.server.eth[1].mac rxPausePkUnits:sum 0
attr interpolationmode none
attr recordingmode sum
attr title "pause units received, sum"
scalar Ethnet.server.eth[1].mac txPausePkUnits:count 0
attr interpolationmode none
attr recordingmode count
attr title "pause units sent, count"
scalar Ethnet.server.eth[1].mac txPausePkUnits:sum 0
attr interpolationmode none
attr recordingmode sum
attr title "pause units sent, sum"
scalar Ethnet.server.eth[1].mac rxPkOk:count 3737
attr interpolationmode none
attr recordingmode count
attr source rxPkOk
attr title "packets received OK, count"
scalar Ethnet.server.eth[1].mac rxPkOk:sum(packetBytes) 1227972
attr interpolationmode none
attr recordingmode sum(packetBytes)
attr source rxPkOk
attr title "packets received OK, sum(packetBytes)"
par Ethnet.server.eth[1] typename "\"inet.linklayer.ethernet.EthernetInterface\""
par Ethnet.server.eth[1] displayStringTextFormat "\"%a (%i)\\n%m\""
par Ethnet.server.eth[1] recordPcap false
par Ethnet.server.eth[1] numPcapRecorders 0
par Ethnet.server.eth[1] interfaceTableModule "\"Ethnet.server.interfaceTable\""
par Ethnet.server.eth[1] protocol "\"ethernetmac\""
par Ethnet.server.eth[1] address "\"0A-AA-00-00-00-02\""
attr mutable ""
par Ethnet.server.eth[1] duplexMode true
par Ethnet.server.eth[1] csmacdSupport false
par Ethnet.server.eth[1] bitrate 0bps
attr unit bps
par Ethnet.server.eth[1] fcsMode "\"declared\""
attr enum declared,computed
scalar Ethnet.server.eth[1] packetDropInterfaceDown:count 0
attr interpolationmode none
attr recordingmode count
attr source packetDropReasonIsInterfaceDown(packetDropped)
attr title "packet drops: interface down, count"
scalar Ethnet.server.eth[1] packetDropInterfaceDown:sum(packetBytes) 0
attr interpolationmode none
attr recordingmode sum(packetBytes)
attr source packetDropReasonIsInterfaceDown(packetDropped)
attr title "packet drops: interface down, sum(packetBytes)"
scalar Ethnet.server.eth[1] packetDropNoCarrier:count 0
attr interpolationmode none
attr recordingmode count
attr source packetDropReasonIsNoCarrier(packetDropped)
attr title "packet drops: no carrier, count"
scalar Ethnet.server.eth[1] packetDropNoCarrier:sum(packetBytes) 0
attr interpolationmode none
attr recordingmode sum(packetBytes)
attr source packetDropReasonIsNoCarrier(packetDropped)
attr title "packet drops: no carrier, sum(packetBytes)"
par Ethnet.server.eth[2].mac.phys$o.channel typename "\"ned.IdealChannel\""
par Ethnet.server.eth[2].phys$i.channel typename "\"ned.IdealChannel\""
par Ethnet.server.eth[2].upperLayerIn.channel typename "\"ned.IdealChannel\""
par Ethnet.server.eth[2].mac.upperLayerOut.channel typename "\"ned.IdealChannel\""
par Ethnet.server.eth[2].queue typename "\"inet.linklayer.ethernet.common.EthernetQueue\""
par Ethnet.server.eth[2].queue displayStringTextFormat "\"contains %p pk (%l) pushed %u\\npulled %o removed %r dropped %d\""
par Ethnet.server.eth[2].queue packetCapacity 1000
par Ethnet.server.eth[2].queue dataCapacity -1b
attr unit b
par Ethnet.server.eth[2].queue dropperClass "\"inet::queueing::PacketAtCollectionEndDropper\""
par Ethnet.server.eth[2].queue comparatorClass "\"inet::EthernetFrameTypeComparator\""
par Ethnet.server.eth[2].queue bufferModule "\"\""
scalar Ethnet.server.eth[2].queue queueLength:last 0
attr autoWarmupFilter false
attr interpolationmode sample-hold
attr recordingmode last
attr source "warmup(atomic(constant0(packetPushEnded) + count(packetPushStarted) - count(packetPulled) - count(packetRemoved) - count(packetDropped)))"
attr title "queue length, last"
attr unit pk
scalar Ethnet.server.eth[2].queue queueLength:max 14
attr autoWarmupFilter false
attr interpolationmode sample-hold
attr recordingmode max
attr source "warmup(atomic(constant0(packetPushEnded) + count(packetPushStarted) - count(packetPulled) - count(packetRemoved) - count(packetDropped)))"
attr title "queue length, max"
attr unit pk
scalar Ethnet.server.eth[2].queue queueLength:timeavg 0.011687302599999
attr autoWarmupFilter false
attr interpolationmode sample-hold
attr recordingmode timeavg
attr source "warmup(atomic(constant0(packetPushEnded) + count(packetPushStarted) - count(packetPulled) - count(packetRemoved) - count(packetDropped)))"
attr title "queue length, timeavg"
attr unit pk
scalar Ethnet.server.eth[2].queue queueBitLength:last 0
attr autoWarmupFilter false
attr interpolationmode sample-hold
attr recordingmode last
attr source "warmup(atomic(constant0(packetPushEnded) + sum(packetLength(packetPushStarted)) - sum(packetLength(packetPulled)) - sum(packetLength(packetRemoved)) - sum(packetLength(packetDropped))))"
attr title "queue bit length, last"
attr unit b
scalar Ethnet.server.eth[2].queue queueBitLength:max 61776
attr autoWarmupFilter false
attr interpolationmode sample-hold
attr recordingmode max
attr source "warmup(atomic(constant0(packetPushEnded) + sum(packetLength(packetPushStarted)) - sum(packetLength(packetPulled)) - sum(packetLength(packetRemoved)) - sum(packetLength(packetDropped))))"
attr title "queue bit length, max"
attr unit b
scalar Ethnet.server.eth[2].queue queueBitLength:timeavg 30.565679696
attr autoWarmupFilter false
attr interpolationmode sample-hold
attr recordingmode timeavg
attr source "warmup(atomic(constant0(packetPushEnded) + sum(packetLength(packetPushStarted)) - sum(packetLength(packetPulled)) - sum(packetLength(packetRemoved)) - sum(packetLength(packetDropped))))"
attr title "queue bit length, timeavg"
attr unit b
statistic Ethnet.server.eth[2].queue queueingTime:histogram
field count 3736
field mean 0.00031282929871519
field stddev 0.00017265985702701
field min 0
field max 0.00059152
field sum 1.16873026
field sqrsum 0.0004769587445868
attr interpolationmode none
attr recordingmode histogram
attr source queueingTime(packetPulled)
attr title "queueing times"
attr unit s
bin	-inf	0
bin	0	26
bin	1e-05	1
bin	2e-05	1
bin	3e-05	0
bin	4e-05	267
bin	5e-05	1
bin	6e-05	2
bin	7e-05	0
bin	8e-05	262
bin	9e-05	4
bin	0.0001	0
bin	0.00011	1
bin	0.00012	262
bin	0.00013	0
bin	0.00014	4
bin	0.00015	1
bin	0.00016	262
bin	0.00017	0
bin	0.00018	2
bin	0.00019	1
bin	0.0002	262
bin	0.00021	0
bin	0.00022	0
bin	0.00023	3
bin	0.00024	0
bin	0.00025	262
bin	0.00026	0
bin	0.00027	2
bin	0.00028	1
bin	0.00029	262
bin	0.0003	0
bin	0.00031	0
bin	0.00032	3
bin	0.00033	262
bin	0.00034	0
bin	0.00035	0
bin	0.00036	1
bin	0.00037	262
bin	0.00038	0
bin	0.00039	0
bin	0.0004	0
bin	0.00041	1
bin	0.00042	262
bin	0.00043	0
bin	0.00044	0
bin	0.00045	1
bin	0.00046	262
bin	0.00047	0
bin	0.00048	0
bin	0.00049	0
bin	0.0005	263
bin	0.00051	0
bin	0.00052	0
bin	0.00053	0
bin	0.00054	265
bin	0.00055	0
bin	0.00056	0
bin	0.00057	0
bin	0.00058	0
bin	0.00059	265
bin	0.0006	0
bin	0.00061	0
bin	0.00062	0
bin	0.00063	0
bin	0.00064	0
bin	0.00065	0
bin	0.00066	0
bin	0.00067	0
bin	0.00068	0
bin	0.00069	0
bin	0.0007	0
bin	0.00071	0
bin	0.00072	0
bin	0.00073	0
bin	0.00074	0
scalar Ethnet.server.eth[2].queue outgoingPackets:count 3736
attr recordingmode count
attr source packetPulled
attr title "outgoing packets, count"
attr unit pk
scalar Ethnet.server.eth[2].queue outgoingPacketLengths:sum 9733440
attr interpolationmode none
attr recordingmode sum
attr source packetLength(packetPulled)
attr title "outgoing packet lengths, sum"
attr unit b
statistic Ethnet.server.eth[2].queue outgoingPacketLengths:histogram
field count 3736
field mean 2605.3104925054
field stddev 2144.0499094965
field min 368
field max 4752
field sum 9733440
field sqrsum 42528241664
attr interpolationmode none
attr recordingmode histogram
attr source packetLength(packetPulled)
attr title "outgoing packet lengths"
attr unit b
bin	-inf	0
bin	0	0
bin	100	0
bin	200	0
bin	300	1
bin	400	1869
bin	500	0
bin	600	0
bin	700	0
bin	800	0
bin	900	0
bin	1000	0
bin	1100	0
bin	1200	0
bin	1300	0
bin	1400	0
bin	1500	0
bin	1600	0
bin	1700	0
bin	1800	0
bin	1900	0
bin	2000	0
bin	2100	0
bin	2200	0
bin	2300	0
bin	2400	0
bin	2500	0
bin	2600	0
bin	2700	0
bin	2800	0
bin	2900	0
bin	3000	0
bin	3100	0
bin	3200	0
bin	3300	1
bin	3400	0
bin	3500	0
bin	3600	0
bin	3700	0
bin	3800	0
bin	3900	0
bin	4000	0
bin	4100	0
bin	4200	0
bin	4300	0
bin	4400	0
bin	4500	0
bin	4600	0
bin	4700	1865
bin	4800	0
bin	4900	0
bin	5000	0
bin	5100	0
bin	5200	0
bin	5300	0
bin	5400	0
bin	5500	0
bin	5600	0
bin	5700	0
bin	5800	0
bin	5900	0
statistic Ethnet.server.eth[2].queue flowQueueingTime:histogram
field count 0
field mean nan
field stddev nan
field min nan
field max nan
field sum 0
field sqrsum 0
attr interpolationmode none
attr recordingmode histogram
attr source queueingTime(demuxFlow(packetPulled))
attr title "flow queueing times"
attr unit s
bin	-inf	0
bin	0	0
bin	1	0
scalar Ethnet.server.eth[2].queue incomingPackets:count 3736
attr recordingmode count
attr source packetPushStarted
attr title "incoming packets, count"
attr unit pk
scalar Ethnet.server.eth[2].queue incomingPacketLengths:sum 9733440
attr interpolationmode none
attr recordingmode sum
attr source packetLength(packetPushStarted)
attr title "incoming packet lengths, sum"
attr unit b
statistic Ethnet.server.eth[2].queue incomingPacketLengths:histogram
field count 3736
field mean 2605.3104925054
field stddev 2144.0499094965
field min 368
field max 4752
field sum 9733440
field sqrsum 42528241664
attr interpolationmode none
attr recordingmode histogram
attr source packetLength(packetPushStarted)
attr title "incoming packet lengths"
attr unit b
bin	-inf	0
bin	0	0
bin	100	0
bin	200	0
bin	300	1
bin	400	1869
bin	500	0
bin	600	0
bin	700	0
bin	800	0
bin	900	0
bin	1000	0
bin	1100	0
bin	1200	0
bin	1300	0
bin	1400	0
bin	1500	0
bin	1600	0
bin	1700	0
bin	1800	0
bin	1900	0
bin	2000	0
bin	2100	0
bin	2200	0
bin	2300	0
bin	2400	0
bin	2500	0
bin	2600	0
bin	2700	0
bin	2800	0
bin	2900	0
bin	3000	0
bin	3100	0
bin	3200	0
bin	3300	1
bin	3400	0
bin	3500	0
bin	3600	0
bin	3700	0
bin	3800	0
bin	3900	0
bin	4000	0
bin	4100	0
bin	4200	0
bin	4300	0
bin	4400	0
bin	4500	0
bin	4600	0
bin	4700	1865
bin	4800	0
bin	4900	0
bin	5000	0
bin	5100	0
bin	5200	0
bin	5300	0
bin	5400	0
bin	5500	0
bin	5600	0
bin	5700	0
bin	5800	0
bin	5900	0
scalar Ethnet.server.eth[2].queue droppedPacketsQueueOverflow:count 0
attr interpolationmode none
attr recordingmode count
attr source packetDropReasonIsQueueOverflow(packetDropped)
attr title "dropped packets: queue overflow, count"
attr unit pk
scalar Ethnet.server.eth[2].queue droppedPacketLengthsQueueOverflow:sum 0
attr interpolationmode none
attr recordingmode sum
attr source packetLength(packetDropReasonIsQueueOverflow(packetDropped))
attr title "dropped packet lengths: queue overflow, sum"
attr unit b
par Ethnet.server.eth[2].mac typename "\"inet.linklayer.ethernet.basic.EthernetMac\""
par Ethnet.server.eth[2].mac interfaceTableModule "\"Ethnet.server.interfaceTable\""
par Ethnet.server.eth[2].mac displayStringTextFormat "\"rate: %b\\nsent: %s, rcvd: %r\\nqueue: %q, drop: %d\""
par Ethnet.server.eth[2].mac sendRawBytes false
par Ethnet.server.eth[2].mac promiscuous false
par Ethnet.server.eth[2].mac duplexMode true
par Ethnet.server.eth[2].mac mtu 1500B
attr unit B
par Ethnet.server.eth[2].mac fcsMode "\"declared\""
attr enum declared,computed
par Ethnet.server.eth[2].mac stopOperationExtraTime -1s
attr unit s
par Ethnet.server.eth[2].mac stopOperationTimeout 2s
attr unit s
scalar Ethnet.server.eth[2].mac "simulated time" 100
scalar Ethnet.server.eth[2].mac full-duplex 1
scalar Ethnet.server.eth[2].mac "frames/sec sent" 37.36
scalar Ethnet.server.eth[2].mac "frames/sec rcvd" 37.37
scalar Ethnet.server.eth[2].mac "bits/sec sent" 98232.64
scalar Ethnet.server.eth[2].mac "bits/sec rcvd" 98237.76
scalar Ethnet.server.eth[2].mac "rx channel idle (%)" 99.89937056
scalar Ethnet.server.eth[2].mac "rx channel utilization (%)" 0.10062944
scalar Ethnet.server.eth[2].mac txPk:count 3736
attr interpolationmode none
attr recordingmode count
attr source packetSentToLower
attr title "packets transmitted, count"
scalar Ethnet.server.eth[2].mac txPk:sum(packetBytes) 1227908
attr interpolationmode none
attr recordingmode sum(packetBytes)
attr source packetSentToLower
attr title "packets transmitted, sum(packetBytes)"
scalar Ethnet.server.eth[2].mac packetReceivedFromUpper:count 3736
attr interpolationmode none
attr recordingmode count
attr source packetReceivedFromUpper
attr title "packet bytes from higher layer, count"
scalar Ethnet.server.eth[2].mac packetReceivedFromUpper:sum(packetBytes) 1216680
attr interpolationmode none
attr recordingmode sum(packetBytes)
attr source packetReceivedFromUpper
attr title "packet bytes from higher layer, sum(packetBytes)"
scalar Ethnet.server.eth[2].mac passedUpPk:count 3737
attr interpolationmode none
attr recordingmode count
attr source packetSentToUpper
attr title "packets passed to higher layer, count"
scalar Ethnet.server.eth[2].mac passedUpPk:sum(packetBytes) 1227972
attr interpolationmode none
attr recordingmode sum(packetBytes)
attr source packetSentToUpper
attr title "packets passed to higher layer, sum(packetBytes)"
scalar Ethnet.server.eth[2].mac packetDropIncorrectlyReceived:count 0
attr interpolationmode none
attr recordingmode count
attr source packetDropReasonIsIncorrectlyReceived(packetDropped)
attr title "packet drop: incorrectly received, count"
scalar Ethnet.server.eth[2].mac packetDropIncorrectlyReceived:sum(packetBytes) 0
attr interpolationmode none
attr recordingmode sum(packetBytes)
attr source packetDropReasonIsIncorrectlyReceived(packetDropped)
attr title "packet drop: incorrectly received, sum(packetBytes)"
scalar Ethnet.server.eth[2].mac packetDropInterfaceDown:count 0
attr interpolationmode none
attr recordingmode count
attr source packetDropReasonIsInterfaceDown(packetDropped)
attr title "packet drop: interface down, count"
scalar Ethnet.server.eth[2].mac packetDropInterfaceDown:sum(packetBytes) 0
attr interpolationmode none
attr recordingmode sum(packetBytes)
attr source packetDropReasonIsInterfaceDown(packetDropped)
attr title "packet drop: interface down, sum(packetBytes)"
scalar Ethnet.server.eth[2].mac packetDropNotAddressedToUs:count 0
attr interpolationmode none
attr recordingmode count
attr source packetDropReasonIsNotAddressedToUs(packetDropped)
attr title "packet drop: not addressed to us, count"
scalar Ethnet.server.eth[2].mac packetDropNotAddressedToUs:sum(packetBytes) 0
attr interpolationmode none
attr recordingmode sum(packetBytes)
attr source packetDropReasonIsNotAddressedToUs(packetDropped)
attr title "packet drop: not addressed to us, sum(packetBytes)"
scalar Ethnet.server.eth[2].mac rxPausePkUnits:count 0
attr interpolationmode none
attr recordingmode count
attr title "pause units received, count"
scalar Ethnet.server.eth[2].mac rxPausePkUnits:sum 0
attr interpolationmode none
attr recordingmode sum
attr title "pause units received, sum"
scalar Ethnet.server.eth[2].mac txPausePkUnits:count 0
attr interpolationmode none
attr recordingmode count
attr title "pause units sent, count"
scalar Ethnet.server.eth[2].mac txPausePkUnits:sum 0
attr interpolationmode none
attr recordingmode sum
attr title "pause units sent, sum"
scalar Ethnet.server.eth[2].mac rxPkOk:count 3737
attr interpolationmode none
attr recordingmode count
attr source rxPkOk
attr title "packets received OK, count"
scalar Ethnet.server.eth[2].mac rxPkOk:sum(packetBytes) 1227972
attr interpolationmode none
attr recordingmode sum(packetBytes)
attr source rxPkOk
attr title "packets received OK, sum(packetBytes)"
par Ethnet.server.eth[2] typename "\"inet.linklayer.ethernet.EthernetInterface\""
par Ethnet.server.eth[2] displayStringTextFormat "\"%a (%i)\\n%m\""
par Ethnet.server.eth[2] recordPcap false
par Ethnet.server.eth[2] numPcapRecorders 0
par Ethnet.server.eth[2] interfaceTableModule "\"Ethnet.server.interfaceTable\""
par Ethnet.server.eth[2] protocol "\"ethernetmac\""
par Ethnet.server.eth[2] address "\"0A-AA-00-00-00-03\""
attr mutable ""
par Ethnet.server.eth[2] duplexMode true
par Ethnet.server.eth[2] csmacdSupport false
par Ethnet.server.eth[2] bitrate 0bps
attr unit bps
par Ethnet.server.eth[2] fcsMode "\"declared\""
attr enum declared,computed
scalar Ethnet.server.eth[2] packetDropInterfaceDown:count 0
attr interpolationmode none
attr recordingmode count
attr source packetDropReasonIsInterfaceDown(packetDropped)
attr title "packet drops: interface down, count"
scalar Ethnet.server.eth[2] packetDropInterfaceDown:sum(packetBytes) 0
attr interpolationmode none
attr recordingmode sum(packetBytes)
attr source packetDropReasonIsInterfaceDown(packetDropped)
attr title "packet drops: interface down, sum(packetBytes)"
scalar Ethnet.server.eth[2] packetDropNoCarrier:count 0
attr interpolationmode none
attr recordingmode count
attr source packetDropReasonIsNoCarrier(packetDropped)
attr title "packet drops: no carrier, count"
scalar Ethnet.server.eth[2] packetDropNoCarrier:sum(packetBytes) 0
attr interpolationmode none
attr recordingmode sum(packetBytes)
attr source packetDropReasonIsNoCarrier(packetDropped)
attr title "packet drops: no carrier, sum(packetBytes)"
par Ethnet.server.eth[3].mac.phys$o.channel typename "\"ned.IdealChannel\""
par Ethnet.server.eth[3].phys$i.channel typename "\"ned.IdealChannel\""
par Ethnet.server.eth[3].upperLayerIn.channel typename "\"ned.IdealChannel\""
par Ethnet.server.eth[3].mac.upperLayerOut.channel typename "\"ned.IdealChannel\""
par Ethnet.server.eth[3].queue typename "\"inet.linklayer.ethernet.common.EthernetQueue\""
par Ethnet.server.eth[3].queue displayStringTextFormat "\"contains %p pk (%l) pushed %u\\npulled %o removed %r dropped %d\""
par Ethnet.server.eth[3].queue packetCapacity 1000
par Ethnet.server.eth[3].queue dataCapacity -1b
attr unit b
par Ethnet.server.eth[3].queue dropperClass "\"inet::queueing::PacketAtCollectionEndDropper\""
par Ethnet.server.eth[3].queue comparatorClass "\"inet::EthernetFrameTypeComparator\""
par Ethnet.server.eth[3].queue bufferModule "\"\""
scalar Ethnet.server.eth[3].queue queueLength:last 0
attr autoWarmupFilter false
attr interpolationmode sample-hold
attr recordingmode last
attr source "warmup(atomic(constant0(packetPushEnded) + count(packetPushStarted) - count(packetPulled) - count(packetRemoved) - count(packetDropped)))"
attr title "queue length, last"
attr unit pk
scalar Ethnet.server.eth[3].queue queueLength:max 14
attr autoWarmupFilter false
attr interpolationmode sample-hold
attr recordingmode max
attr source "warmup(atomic(constant0(packetPushEnded) + count(packetPushStarted) - count(packetPulled) - count(packetRemoved) - count(packetDropped)))"
attr title "queue length, max"
attr unit pk
scalar Ethnet.server.eth[3].queue queueLength:timeavg 0.011687302599999
attr autoWarmupFilter false
attr interpolationmode sample-hold
attr recordingmode timeavg
attr source "warmup(atomic(constant0(packetPushEnded) + count(packetPushStarted) - count(packetPulled) - count(packetRemoved) - count(packetDropped)))"
attr title "queue length, timeavg"
attr unit pk
scalar Ethnet.server.eth[3].queue queueBitLength:last 0
attr autoWarmupFilter false
attr interpolationmode sample-hold
attr recordingmode last
attr source "warmup(atomic(constant0(packetPushEnded) + sum(packetLength(packetPushStarted)) - sum(packetLength(packetPulled)) - sum(packetLength(packetRemoved)) - sum(packetLength(packetDropped))))"
attr title "queue bit length, last"
attr unit b
scalar Ethnet.server.eth[3].queue queueBitLength:max 61776
attr autoWarmupFilter false
attr interpolationmode sample-hold
attr recordingmode max
attr source "warmup(atomic(constant0(packetPushEnded) + sum(packetLength(packetPushStarted)) - sum(packetLength(packetPulled)) - sum(packetLength(packetRemoved)) - sum(packetLength(packetDropped))))"
attr title "queue bit length, max"
attr unit b
scalar Ethnet.server.eth[3].queue queueBitLength:timeavg 30.565679696
attr autoWarmupFilter false
attr interpolationmode sample-hold
attr recordingmode timeavg
attr source "warmup(atomic(constant0(packetPushEnded) + sum(packetLength(packetPushStarted)) - sum(packetLength(packetPulled)) - sum(packetLength(packetRemoved)) - sum(packetLength(packetDropped))))"
attr title "queue bit length, timeavg"
attr unit b
statistic Ethnet.server.eth[3].queue queueingTime:histogram
field count 3736
field mean 0.00031282929871519
field stddev 0.00017265985702701
field min 0
field max 0.00059152
field sum 1.16873026
field sqrsum 0.0004769587445868
attr interpolationmode none
attr recordingmode histogram
attr source queueingTime(packetPulled)
attr title "queueing times"
attr unit s
bin	-inf	0
bin	0	26
bin	1e-05	1
bin	2e-05	1
bin	3e-05	0
bin	4e-05	267
bin	5e-05	1
bin	6e-05	2
bin	7e-05	0
bin	8e-05	262
bin	9e-05	4
bin	0.0001	0
bin	0.00011	1
bin	0.00012	262
bin	0.00013	0
bin	0.00014	4
bin	0.00015	1
bin	0.00016	262
bin	0.00017	0
bin	0.00018	2
bin	0.00019	1
bin	0.0002	262
bin	0.00021	0
bin	0.00022	0
bin	0.00023	3
bin	0.00024	0
bin	0.00025	262
bin	0.00026	0
bin	0.00027	2
bin	0.00028	1
bin	0.00029	262
bin	0.0003	0
bin	0.00031	0
bin	0.00032	3
bin	0.00033	262
bin	0.00034	0
bin	0.00035	0
bin	0.00036	1
bin	0.00037	262
bin	0.00038	0
bin	0.00039	0
bin	0.0004	0
bin	0.00041	1
bin	0.00042	262
bin	0.00043	0
bin	0.00044	0
bin	0.00045	1
bin	0.00046	262
bin	0.00047	0
bin	0.00048	0
bin	0.00049	0
bin	0.0005	263
bin	0.00051	0
bin	0.00052	0
bin	0.00053	0
bin	0.00054	265
bin	0.00055	0
bin	0.00056	0
bin	0.00057	0
bin	0.00058	0
bin	0.00059	265
bin	0.0006	0
bin	0.00061	0
bin	0.00062	0
bin	0.00063	0
bin	0.00064	0
bin	0.00065	0
bin	0.00066	0
bin	0.00067	0
bin	0.00068	0
bin	0.00069	0
bin	0.0007	0
bin	0.00071	0
bin	0.00072	0
bin	0.00073	0
bin	0.00074	0
scalar Ethnet.server.eth[3].queue outgoingPackets:count 3736
attr recordingmode count
attr source packetPulled
attr title "outgoing packets, count"
attr unit pk
scalar Ethnet.server.eth[3].queue outgoingPacketLengths:sum 9733440
attr interpolationmode none
attr recordingmode sum
attr source packetLength(packetPulled)
attr title "outgoing packet lengths, sum"
attr unit b
statistic Ethnet.server.eth[3].queue outgoingPacketLengths:histogram
field count 3736
field mean 2605.3104925054
field stddev 2144.0499094965
field min 368
field max 4752
field sum 9733440
field sqrsum 42528241664
attr interpolationmode none
attr recordingmode histogram
attr source packetLength(packetPulled)
attr title "outgoing packet lengths"
attr unit b
bin	-inf	0
bin	0	0
bin	100	0
bin	200	0
bin	300	1
bin	400	1869
bin	500	0
bin	600	0
bin	700	0
bin	800	0
bin	900	0
bin	1000	0
bin	1100	0
bin	1200	0
bin	1300	0
bin	1400	0
bin	1500	0
bin	1600	0
bin	1700	0
bin	1800	0
bin	1900	0
bin	2000	0
bin	2100	0
bin	2200	0
bin	2300	0
bin	2400	0
bin	2500	0
bin	2600	0
bin	2700	0
bin	2800	0
bin	2900	0
bin	3000	0
bin	3100	0
bin	3200	0
bin	3300	1
bin	3400	0
bin	3500	0
bin	3600	0
bin	3700	0
bin	3800	0
bin	3900	0
bin	4000	0
bin	4100	0
bin	4200	0
bin	4300	0
bin	4400	0
bin	4500	0
bin	4600	0
bin	4700	1865
bin	4800	0
bin	4900	0
bin	5000	0
bin	5100	0
bin	5200	0
bin	5300	0
bin	5400	0
bin	5500	0
bin	5600	0
bin	5700	0
bin	5800	0
bin	5900	0
statistic Ethnet.server.eth[3].queue flowQueueingTime:histogram
field count 0
field mean nan
field stddev nan
field min nan
field max nan
field sum 0
field sqrsum 0
attr interpolationmode none
attr recordingmode histogram
attr source queueingTime(demuxFlow(packetPulled))
attr title "flow queueing times"
attr unit s
bin	-inf	0
bin	0	0
bin	1	0
scalar Ethnet.server.eth[3].queue incomingPackets:count 3736
attr recordingmode count
attr source packetPushStarted
attr title "incoming packets, count"
attr unit pk
scalar Ethnet.server.eth[3].queue incomingPacketLengths:sum 9733440
attr interpolationmode none
attr recordingmode sum
attr source packetLength(packetPushStarted)
attr title "incoming packet lengths, sum"
attr unit b
statistic Ethnet.server.eth[3].queue incomingPacketLengths:histogram
field count 3736
field mean 2605.3104925054
field stddev 2144.0499094965
field min 368
field max 4752
field sum 9733440
field sqrsum 42528241664
attr interpolationmode none
attr recordingmode histogram
attr source packetLength(packetPushStarted)
attr title "incoming packet lengths"
attr unit b
bin	-inf	0
bin	0	0
bin	100	0
bin	200	0
bin	300	1
bin	400	1869
bin	500	0
bin	600	0
bin	700	0
bin	800	0
bin	900	0
bin	1000	0
bin	1100	0
bin	1200	0
bin	1300	0
bin	1400	0
bin	1500	0
bin	1600	0
bin	1700	0
bin	1800	0
bin	1900	0
bin	2000	0
bin	2100	0
bin	2200	0
bin	2300	0
bin	2400	0
bin	2500	0
bin	2600	0
bin	2700	0
bin	2800	0
bin	2900	0
bin	3000	0
bin	3100	0
bin	3200	0
bin	3300	1
bin	3400	0
bin	3500	0
bin	3600	0
bin	3700	0
bin	3800	0
bin	3900	0
bin	4000	0
bin	4100	0
bin	4200	0
bin	4300	0
bin	4400	0
bin	4500	0
bin	4600	0
bin	4700	1865
bin	4800	0
bin	4900	0
bin	5000	0
bin	5100	0
bin	5200	0
bin	5300	0
bin	5400	0
bin	5500	0
bin	5600	0
bin	5700	0
bin	5800	0
bin	5900	0
scalar Ethnet.server.eth[3].queue droppedPacketsQueueOverflow:count 0
attr interpolationmode none
attr recordingmode count
attr source packetDropReasonIsQueueOverflow(packetDropped)
attr title "dropped packets: queue overflow, count"
attr unit pk
scalar Ethnet.server.eth[3].queue droppedPacketLengthsQueueOverflow:sum 0
attr interpolationmode none
attr recordingmode sum
attr source packetLength(packetDropReasonIsQueueOverflow(packetDropped))
attr title "dropped packet lengths: queue overflow, sum"
attr unit b
par Ethnet.server.eth[3].mac typename "\"inet.linklayer.ethernet.basic.EthernetMac\""
par Ethnet.server.eth[3].mac interfaceTableModule "\"Ethnet.server.interfaceTable\""
par Ethnet.server.eth[3].mac displayStringTextFormat "\"rate: %b\\nsent: %s, rcvd: %r\\nqueue: %q, drop: %d\""
par Ethnet.server.eth[3].mac sendRawBytes false
par Ethnet.server.eth[3].mac promiscuous false
par Ethnet.server.eth[3].mac duplexMode true
par Ethnet.server.eth[3].mac mtu 1500B
attr unit B
par Ethnet.server.eth[3].mac fcsMode "\"declared\""
attr enum declared,computed
par Ethnet.server.eth[3].mac stopOperationExtraTime -1s
attr unit s
par Ethnet.server.eth[3].mac stopOperationTimeout 2s
attr unit s
scalar Ethnet.server.eth[3].mac "simulated time" 100
scalar Ethnet.server.eth[3].mac full-duplex 1
scalar Ethnet.server.eth[3].mac "frames/sec sent" 37.36
scalar Ethnet.server.eth[3].mac "frames/sec rcvd" 37.37
scalar Ethnet.server.eth[3].mac "bits/sec sent" 98232.64
scalar Ethnet.server.eth[3].mac "bits/sec rcvd" 98237.76
scalar Ethnet.server.eth[3].mac "rx channel idle (%)" 99.89937056
scalar Ethnet.server.eth[3].mac "rx channel utilization (%)" 0.10062944
scalar Ethnet.server.eth[3].mac txPk:count 3736
attr interpolationmode none
attr recordingmode count
attr source packetSentToLower
attr title "packets transmitted, count"
scalar Ethnet.server.eth[3].mac txPk:sum(packetBytes) 1227908
attr interpolationmode none
attr recordingmode sum(packetBytes)
attr source packetSentToLower
attr title "packets transmitted, sum(packetBytes)"
scalar Ethnet.server.eth[3].mac packetReceivedFromUpper:count 3736
attr interpolationmode none
attr recordingmode count
attr source packetReceivedFromUpper
attr title "packet bytes from higher layer, count"
scalar Ethnet.server.eth[3].mac packetReceivedFromUpper:sum(packetBytes) 1216680
attr interpolationmode none
attr recordingmode sum(packetBytes)
attr source packetReceivedFromUpper
attr title "packet bytes from higher layer, sum(packetBytes)"
scalar Ethnet.server.eth[3].mac passedUpPk:count 3737
attr interpolationmode none
attr recordingmode count
attr source packetSentToUpper
attr title "packets passed to higher layer, count"
scalar Ethnet.server.eth[3].mac passedUpPk:sum(packetBytes) 1227972
attr interpolationmode none
attr recordingmode sum(packetBytes)
attr source packetSentToUpper
attr title "packets passed to higher layer, sum(packetBytes)"
scalar Ethnet.server.eth[3].mac packetDropIncorrectlyReceived:count 0
attr interpolationmode none
attr recordingmode count
attr source packetDropReasonIsIncorrectlyReceived(packetDropped)
attr title "packet drop: incorrectly received, count"
scalar Ethnet.server.eth[3].mac packetDropIncorrectlyReceived:sum(packetBytes) 0
attr interpolationmode none
attr recordingmode sum(packetBytes)
attr source packetDropReasonIsIncorrectlyReceived(packetDropped)
attr title "packet drop: incorrectly received, sum(packetBytes)"
scalar Ethnet.server.eth[3].mac packetDropInterfaceDown:count 0
attr interpolationmode none
attr recordingmode count
attr source packetDropReasonIsInterfaceDown(packetDropped)
attr title "packet drop: interface down, count"
scalar Ethnet.server.eth[3].mac packetDropInterfaceDown:sum(packetBytes) 0
attr interpolationmode none
attr recordingmode sum(packetBytes)
attr source packetDropReasonIsInterfaceDown(packetDropped)
attr title "packet drop: interface down, sum(packetBytes)"
scalar Ethnet.server.eth[3].mac packetDropNotAddressedToUs:count 0
attr interpolationmode none
attr recordingmode count
attr source packetDropReasonIsNotAddressedToUs(packetDropped)
attr title "packet drop: not addressed to us, count"
scalar Ethnet.server.eth[3].mac packetDropNotAddressedToUs:sum(packetBytes) 0
attr interpolationmode none
attr recordingmode sum(packetBytes)
attr source packetDropReasonIsNotAddressedToUs(packetDropped)
attr title "packet drop: not addressed to us, sum(packetBytes)"
scalar Ethnet.server.eth[3].mac rxPausePkUnits:count 0
attr interpolationmode none
attr recordingmode count
attr title "pause units received, count"
scalar Ethnet.server.eth[3].mac rxPausePkUnits:sum 0
attr interpolationmode none
attr recordingmode sum
attr title "pause units received, sum"
scalar Ethnet.server.eth[3].mac txPausePkUnits:count 0
attr interpolationmode none
attr recordingmode count
attr title "pause units sent, count"
scalar Ethnet.server.eth[3].mac txPausePkUnits:sum 0
attr interpolationmode none
attr recordingmode sum
attr title "pause units sent, sum"
scalar Ethnet.server.eth[3].mac rxPkOk:count 3737
attr interpolationmode none
attr recordingmode count
attr source rxPkOk
attr title "packets received OK, count"
scalar Ethnet.server.eth[3].mac rxPkOk:sum(packetBytes) 1227972
attr interpolationmode none
attr recordingmode sum(packetBytes)
attr source rxPkOk
attr title "packets received OK, sum(packetBytes)"
par Ethnet.server.eth[3] typename "\"inet.linklayer.ethernet.EthernetInterface\""
par Ethnet.server.eth[3] displayStringTextFormat "\"%a (%i)\\n%m\""
par Ethnet.server.eth[3] recordPcap false
par Ethnet.server.eth[3] numPcapRecorders 0
par Ethnet.server.eth[3] interfaceTableModule "\"Ethnet.server.interfaceTable\""
par Ethnet.server.eth[3] protocol "\"ethernetmac\""
par Ethnet.server.eth[3] address "\"0A-AA-00-00-00-04\""
attr mutable ""
par Ethnet.server.eth[3] duplexMode true
par Ethnet.server.eth[3] csmacdSupport false
par Ethnet.server.eth[3] bitrate 0bps
attr unit bps
par Ethnet.server.eth[3] fcsMode "\"declared\""
attr enum declared,computed
scalar Ethnet.server.eth[3] packetDropInterfaceDown:count 0
attr interpolationmode none
attr recordingmode count
attr source packetDropReasonIsInterfaceDown(packetDropped)
attr title "packet drops: interface down, count"
scalar Ethnet.server.eth[3] packetDropInterfaceDown:sum(packetBytes) 0
attr interpolationmode none
attr recordingmode sum(packetBytes)
attr source packetDropReasonIsInterfaceDown(packetDropped)
attr title "packet drops: interface down, sum(packetBytes)"
scalar Ethnet.server.eth[3] packetDropNoCarrier:count 0
attr interpolationmode none
attr recordingmode count
attr source packetDropReasonIsNoCarrier(packetDropped)
attr title "packet drops: no carrier, count"
scalar Ethnet.server.eth[3] packetDropNoCarrier:sum(packetBytes) 0
attr interpolationmode none
attr recordingmode sum(packetBytes)
attr source packetDropReasonIsNoCarrier(packetDropped)
attr title "packet drops: no carrier, sum(packetBytes)"
par Ethnet.server.ipv4.transportIn.channel typename "\"ned.IdealChannel\""
par Ethnet.server.ipv4.up.out[0].channel typename "\"ned.IdealChannel\""
par Ethnet.server.ipv4.lp.out[2].channel typename "\"ned.IdealChannel\""
par Ethnet.server.ipv4.ifIn.channel typename "\"ned.IdealChannel\""
par Ethnet.server.ipv4.configurator typename "\"inet.networklayer.configurator.ipv4.Ipv4NodeConfigurator\""
par Ethnet.server.ipv4.configurator interfaceTableModule "\"Ethnet.server.interfaceTable\""
par Ethnet.server.ipv4.configurator routingTableModule "\"Ethnet.server.ipv4.routingTable\""
par Ethnet.server.ipv4.configurator networkConfiguratorModule "\"configurator\""
par Ethnet.server.ipv4.configurator configureRoutingTable true
par Ethnet.server.ipv4.routingTable typename "\"inet.networklayer.ipv4.Ipv4RoutingTable\""
par Ethnet.server.ipv4.routingTable interfaceTableModule "\"Ethnet.server.interfaceTable\""
par Ethnet.server.ipv4.routingTable routerId "\"auto\""
par Ethnet.server.ipv4.routingTable netmaskRoutes "\"*\""
par Ethnet.server.ipv4.routingTable forwarding false
par Ethnet.server.ipv4.routingTable multicastForwarding false
par Ethnet.server.ipv4.routingTable useAdminDist false
par Ethnet.server.ipv4.routingTable routingFile "\"\""
par Ethnet.server.ipv4.natTable typename "\"inet.networklayer.ipv4.Ipv4NatTable\""
par Ethnet.server.ipv4.natTable networkProtocolModule "\"^.ip\""
par Ethnet.server.ipv4.natTable config "<config/> at content:1"
par Ethnet.server.ipv4.up typename "\"inet.common.MessageDispatcher\""
par Ethnet.server.ipv4.up displayStringTextFormat "\"processed %p pk (%l)\""
par Ethnet.server.ipv4.up forwardServiceRegistration true
par Ethnet.server.ipv4.up forwardProtocolRegistration true
par Ethnet.server.ipv4.igmp typename "\"inet.networklayer.ipv4.Igmpv2\""
par Ethnet.server.ipv4.igmp interfaceTableModule "\"Ethnet.server.interfaceTable\""
par Ethnet.server.ipv4.igmp routingTableModule "\"Ethnet.server.ipv4.routingTable\""
par Ethnet.server.ipv4.igmp crcMode "\"declared\""
attr enum declared,computed
par Ethnet.server.ipv4.igmp enabled true
par Ethnet.server.ipv4.igmp robustnessVariable 2
par Ethnet.server.ipv4.igmp queryInterval 125s
attr unit s
par Ethnet.server.ipv4.igmp queryResponseInterval 10s
attr unit s
par Ethnet.server.ipv4.igmp groupMembershipInterval 260s
attr unit s
par Ethnet.server.ipv4.igmp otherQuerierPresentInterval 255s
attr unit s
par Ethnet.server.ipv4.igmp startupQueryInterval 31.25s
attr unit s
par Ethnet.server.ipv4.igmp startupQueryCount 2
par Ethnet.server.ipv4.igmp lastMemberQueryInterval 1s
attr unit s
par Ethnet.server.ipv4.igmp lastMemberQueryCount 2
par Ethnet.server.ipv4.igmp unsolicitedReportInterval 10s
attr unit s
par Ethnet.server.ipv4.icmp typename "\"inet.networklayer.ipv4.Icmp\""
par Ethnet.server.ipv4.icmp interfaceTableModule "\"Ethnet.server.interfaceTable\""
par Ethnet.server.ipv4.icmp routingTableModule "\"Ethnet.server.ipv4.routingTable\""
par Ethnet.server.ipv4.icmp crcMode "\"declared\""
attr enum declared,computed
attr mutable ""
par Ethnet.server.ipv4.icmp quoteLength 8B
attr mutable ""
attr unit B
par Ethnet.server.ipv4.mp typename "\"inet.common.MessageDispatcher\""
par Ethnet.server.ipv4.mp displayStringTextFormat "\"processed %p pk (%l)\""
par Ethnet.server.ipv4.mp forwardServiceRegistration true
par Ethnet.server.ipv4.mp forwardProtocolRegistration true
par Ethnet.server.ipv4.ip typename "\"inet.networklayer.ipv4.Ipv4\""
par Ethnet.server.ipv4.ip interfaceTableModule "\"Ethnet.server.interfaceTable\""
par Ethnet.server.ipv4.ip routingTableModule "\"Ethnet.server.ipv4.routingTable\""
par Ethnet.server.ipv4.ip arpModule "\"Ethnet.server.ipv4.arp\""
par Ethnet.server.ipv4.ip icmpModule "\"Ethnet.server.ipv4.icmp\""
par Ethnet.server.ipv4.ip crcMode "\"declared\""
attr enum declared,computed
par Ethnet.server.ipv4.ip timeToLive 32
par Ethnet.server.ipv4.ip multicastTimeToLive 32
par Ethnet.server.ipv4.ip fragmentTimeout 60s
attr unit s
par Ethnet.server.ipv4.ip limitedBroadcast false
par Ethnet.server.ipv4.ip directBroadcastInterfaces "\"\""
scalar Ethnet.server.ipv4.ip packetDropAddressResolutionFailed:count 0
attr interpolationmode none
attr recordingmode count
attr source packetDropReasonIsAddressResolutionFailed(packetDropped)
attr title "packet drop: address resolution failed, count"
scalar Ethnet.server.ipv4.ip packetDropAddressResolutionFailed:sum(packetBytes) 0
attr interpolationmode none
attr recordingmode sum(packetBytes)
attr source packetDropReasonIsAddressResolutionFailed(packetDropped)
attr title "packet drop: address resolution failed, sum(packetBytes)"
scalar Ethnet.server.ipv4.ip packetDropHopLimitReached:count 0
attr interpolationmode none
attr recordingmode count
attr source packetDropReasonIsHopLimitReached(packetDropped)
attr title "packet drop: hop limit reached, count"
scalar Ethnet.server.ipv4.ip packetDropHopLimitReached:sum(packetBytes) 0
attr interpolationmode none
attr recordingmode sum(packetBytes)
attr source packetDropReasonIsHopLimitReached(packetDropped)
attr title "packet drop: hop limit reached, sum(packetBytes)"
scalar Ethnet.server.ipv4.ip packetDropForwardingDisabled:count 0
attr interpolationmode none
attr recordingmode count
attr source packetDropReasonIsForwardingDisabled(packetDropped)
attr title "packet drop: forwarding disabled, count"
scalar Ethnet.server.ipv4.ip packetDropForwardingDisabled:sum(packetBytes) 0
attr interpolationmode none
attr recordingmode sum(packetBytes)
attr source packetDropReasonIsForwardingDisabled(packetDropped)
attr title "packet drop: forwarding disabled, sum(packetBytes)"
scalar Ethnet.server.ipv4.ip packetDropNoInterfaceFound:count 0
attr interpolationmode none
attr recordingmode count
attr source packetDropReasonIsNoInterfaceFound(packetDropped)
attr title "packet drop: no interface found, count"
scalar Ethnet.server.ipv4.ip packetDropNoInterfaceFound:sum(packetBytes) 0
attr interpolationmode none
attr recordingmode sum(packetBytes)
attr source packetDropReasonIsNoInterfaceFound(packetDropped)
attr title "packet drop: no interface found, sum(packetBytes)"
scalar Ethnet.server.ipv4.ip packetDropNoRouteFound:count 0
attr interpolationmode none
attr recordingmode count
attr source packetDropReasonIsNoRouteFound(packetDropped)
attr title "packet drop: no route found, count"
scalar Ethnet.server.ipv4.ip packetDropNoRouteFound:sum(packetBytes) 0
attr interpolationmode none
attr recordingmode sum(packetBytes)
attr source packetDropReasonIsNoRouteFound(packetDropped)
attr title "packet drop: no route found, sum(packetBytes)"
scalar Ethnet.server.ipv4.ip packetDropUndefined:count 0
attr interpolationmode none
attr recordingmode count
attr source packetDropReasonIsUndefined(packetDropped)
attr title "packet drop: undefined, count"
scalar Ethnet.server.ipv4.ip packetDropUndefined:sum(packetBytes) 0
attr interpolationmode none
attr recordingmode sum(packetBytes)
attr source packetDropReasonIsUndefined(packetDropped)
attr title "packet drop: undefined, sum(packetBytes)"
par Ethnet.server.ipv4.arp typename "\"inet.networklayer.arp.ipv4.Arp\""
par Ethnet.server.ipv4.arp interfaceTableModule "\"Ethnet.server.interfaceTable\""
par Ethnet.server.ipv4.arp routingTableModule "\"Ethnet.server.ipv4.routingTable\""
par Ethnet.server.ipv4.arp retryTimeout 1s
attr unit s
par Ethnet.server.ipv4.arp retryCount 3
par Ethnet.server.ipv4.arp cacheTimeout 120s
attr unit s
par Ethnet.server.ipv4.arp proxyArpInterfaces "\"\""
scalar Ethnet.server.ipv4.arp arpReplySent:count 4
attr recordingmode count
attr source arpReplySent
attr title "ARP replies sent, count"
scalar Ethnet.server.ipv4.arp arpReplySent:sum(packetBytes) 112
attr recordingmode sum(packetBytes)
attr source arpReplySent
attr title "ARP replies sent, sum(packetBytes)"
scalar Ethnet.server.ipv4.arp arpRequestSent:count 0
attr recordingmode count
attr source arpRequestSent
attr title "ARP request sent, count"
scalar Ethnet.server.ipv4.arp arpRequestSent:sum(packetBytes) 0
attr recordingmode sum(packetBytes)
attr source arpRequestSent
attr title "ARP request sent, sum(packetBytes)"
scalar Ethnet.server.ipv4.arp arpResolutionFailed:count 0
attr recordingmode count
attr title "ARP failed resolutions, count"
scalar Ethnet.server.ipv4.arp arpResolutionCompleted:count 4
attr recordingmode count
attr title "ARP completed resolutions, count"
scalar Ethnet.server.ipv4.arp arpResolutionInitiated:count 0
[...]
par Ethnet.client3.eth[0] displayStringTextFormat "\"%a (%i)\\n%m\""
par Ethnet.client3.eth[0] recordPcap false
par Ethnet.client3.eth[0] numPcapRecorders 0
par Ethnet.client3.eth[0] interfaceTableModule "\"Ethnet.client3.interfaceTable\""
par Ethnet.client3.eth[0] protocol "\"ethernetmac\""
par Ethnet.client3.eth[0] address "\"0A-AA-00-00-00-08\""
attr mutable ""
par Ethnet.client3.eth[0] duplexMode true
par Ethnet.client3.eth[0] csmacdSupport false
par Ethnet.client3.eth[0] bitrate 0bps
attr unit bps
par Ethnet.client3.eth[0] fcsMode "\"declared\""
attr enum declared,computed
scalar Ethnet.client3.eth[0] packetDropInterfaceDown:count 0
attr interpolationmode none
attr recordingmode count
attr source packetDropReasonIsInterfaceDown(packetDropped)
attr title "packet drops: interface down, count"
scalar Ethnet.client3.eth[0] packetDropInterfaceDown:sum(packetBytes) 0
attr interpolationmode none
attr recordingmode sum(packetBytes)
attr source packetDropReasonIsInterfaceDown(packetDropped)
attr title "packet drops: interface down, sum(packetBytes)"
scalar Ethnet.client3.eth[0] packetDropNoCarrier:count 0
attr interpolationmode none
attr recordingmode count
attr source packetDropReasonIsNoCarrier(packetDropped)
attr title "packet drops: no carrier, count"
scalar Ethnet.client3.eth[0] packetDropNoCarrier:sum(packetBytes) 0
attr interpolationmode none
attr recordingmode sum(packetBytes)
attr source packetDropReasonIsNoCarrier(packetDropped)
attr title "packet drops: no carrier, sum(packetBytes)"
par Ethnet.client3.ipv4.transportIn.channel typename "\"ned.IdealChannel\""
par Ethnet.client3.ipv4.up.out[0].channel typename "\"ned.IdealChannel\""
par Ethnet.client3.ipv4.lp.out[2].channel typename "\"ned.IdealChannel\""
par Ethnet.client3.ipv4.ifIn.channel typename "\"ned.IdealChannel\""
par Ethnet.client3.ipv4.configurator typename "\"inet.networklayer.configurator.ipv4.Ipv4NodeConfigurator\""
par Ethnet.client3.ipv4.configurator interfaceTableModule "\"Ethnet.client3.interfaceTable\""
par Ethnet.client3.ipv4.configurator routingTableModule "\"Ethnet.client3.ipv4.routingTable\""
par Ethnet.client3.ipv4.configurator networkConfiguratorModule "\"configurator\""
par Ethnet.client3.ipv4.configurator configureRoutingTable true
par Ethnet.client3.ipv4.routingTable typename "\"inet.networklayer.ipv4.Ipv4RoutingTable\""
par Ethnet.client3.ipv4.routingTable interfaceTableModule "\"Ethnet.client3.interfaceTable\""
par Ethnet.client3.ipv4.routingTable routerId "\"auto\""
par Ethnet.client3.ipv4.routingTable netmaskRoutes "\"*\""
par Ethnet.client3.ipv4.routingTable forwarding false
par Ethnet.client3.ipv4.routingTable multicastForwarding false
par Ethnet.client3.ipv4.routingTable useAdminDist false
par Ethnet.client3.ipv4.routingTable routingFile "\"\""
par Ethnet.client3.ipv4.natTable typename "\"inet.networklayer.ipv4.Ipv4NatTable\""
par Ethnet.client3.ipv4.natTable networkProtocolModule "\"^.ip\""
par Ethnet.client3.ipv4.natTable config "<config/> at content:1"
par Ethnet.client3.ipv4.up typename "\"inet.common.MessageDispatcher\""
par Ethnet.client3.ipv4.up displayStringTextFormat "\"processed %p pk (%l)\""
par Ethnet.client3.ipv4.up forwardServiceRegistration true
par Ethnet.client3.ipv4.up forwardProtocolRegistration true
par Ethnet.client3.ipv4.igmp typename "\"inet.networklayer.ipv4.Igmpv2\""
par Ethnet.client3.ipv4.igmp interfaceTableModule "\"Ethnet.client3.interfaceTable\""
par Ethnet.client3.ipv4.igmp routingTableModule "\"Ethnet.client3.ipv4.routingTable\""
par Ethnet.client3.ipv4.igmp crcMode "\"declared\""
attr enum declared,computed
par Ethnet.client3.ipv4.igmp enabled true
par Ethnet.client3.ipv4.igmp robustnessVariable 2
par Ethnet.client3.ipv4.igmp queryInterval 125s
attr unit s
par Ethnet.client3.ipv4.igmp queryResponseInterval 10s
attr unit s
par Ethnet.client3.ipv4.igmp groupMembershipInterval 260s
attr unit s
par Ethnet.client3.ipv4.igmp otherQuerierPresentInterval 255s
attr unit s
par Ethnet.client3.ipv4.igmp startupQueryInterval 31.25s
attr unit s
par Ethnet.client3.ipv4.igmp startupQueryCount 2
par Ethnet.client3.ipv4.igmp lastMemberQueryInterval 1s
attr unit s
par Ethnet.client3.ipv4.igmp lastMemberQueryCount 2
par Ethnet.client3.ipv4.igmp unsolicitedReportInterval 10s
attr unit s
par Ethnet.client3.ipv4.icmp typename "\"inet.networklayer.ipv4.Icmp\""
par Ethnet.client3.ipv4.icmp interfaceTableModule "\"Ethnet.client3.interfaceTable\""
par Ethnet.client3.ipv4.icmp routingTableModule "\"Ethnet.client3.ipv4.routingTable\""
par Ethnet.client3.ipv4.icmp crcMode "\"declared\""
attr enum declared,computed
attr mutable ""
par Ethnet.client3.ipv4.icmp quoteLength 8B
attr mutable ""
attr unit B
par Ethnet.client3.ipv4.mp typename "\"inet.common.MessageDispatcher\""
par Ethnet.client3.ipv4.mp displayStringTextFormat "\"processed %p pk (%l)\""
par Ethnet.client3.ipv4.mp forwardServiceRegistration true
par Ethnet.client3.ipv4.mp forwardProtocolRegistration true
par Ethnet.client3.ipv4.ip typename "\"inet.networklayer.ipv4.Ipv4\""
par Ethnet.client3.ipv4.ip interfaceTableModule "\"Ethnet.client3.interfaceTable\""
par Ethnet.client3.ipv4.ip routingTableModule "\"Ethnet.client3.ipv4.routingTable\""
par Ethnet.client3.ipv4.ip arpModule "\"Ethnet.client3.ipv4.arp\""
par Ethnet.client3.ipv4.ip icmpModule "\"Ethnet.client3.ipv4.icmp\""
par Ethnet.client3.ipv4.ip crcMode "\"declared\""
attr enum declared,computed
par Ethnet.client3.ipv4.ip timeToLive 32
par Ethnet.client3.ipv4.ip multicastTimeToLive 32
par Ethnet.client3.ipv4.ip fragmentTimeout 60s
attr unit s
par Ethnet.client3.ipv4.ip limitedBroadcast false
par Ethnet.client3.ipv4.ip directBroadcastInterfaces "\"\""
scalar Ethnet.client3.ipv4.ip packetDropAddressResolutionFailed:count 0
attr interpolationmode none
attr recordingmode count
attr source packetDropReasonIsAddressResolutionFailed(packetDropped)
attr title "packet drop: address resolution failed, count"
scalar Ethnet.client3.ipv4.ip packetDropAddressResolutionFailed:sum(packetBytes) 0
attr interpolationmode none
attr recordingmode sum(packetBytes)
attr source packetDropReasonIsAddressResolutionFailed(packetDropped)
attr title "packet drop: address resolution failed, sum(packetBytes)"
scalar Ethnet.client3.ipv4.ip packetDropHopLimitReached:count 0
attr interpolationmode none
attr recordingmode count
attr source packetDropReasonIsHopLimitReached(packetDropped)
attr title "packet drop: hop limit reached, count"
scalar Ethnet.client3.ipv4.ip packetDropHopLimitReached:sum(packetBytes) 0
attr interpolationmode none
attr recordingmode sum(packetBytes)
attr source packetDropReasonIsHopLimitReached(packetDropped)
attr title "packet drop: hop limit reached, sum(packetBytes)"
scalar Ethnet.client3.ipv4.ip packetDropForwardingDisabled:count 0
attr interpolationmode none
attr recordingmode count
attr source packetDropReasonIsForwardingDisabled(packetDropped)
attr title "packet drop: forwarding disabled, count"
scalar Ethnet.client3.ipv4.ip packetDropForwardingDisabled:sum(packetBytes) 0
attr interpolationmode none
attr recordingmode sum(packetBytes)
attr source packetDropReasonIsForwardingDisabled(packetDropped)
attr title "packet drop: forwarding disabled, sum(packetBytes)"
scalar Ethnet.client3.ipv4.ip packetDropNoInterfaceFound:count 0
attr interpolationmode none
attr recordingmode count
attr source packetDropReasonIsNoInterfaceFound(packetDropped)
attr title "packet drop: no interface found, count"
scalar Ethnet.client3.ipv4.ip packetDropNoInterfaceFound:sum(packetBytes) 0
attr interpolationmode none
attr recordingmode sum(packetBytes)
attr source packetDropReasonIsNoInterfaceFound(packetDropped)
attr title "packet drop: no interface found, sum(packetBytes)"
scalar Ethnet.client3.ipv4.ip packetDropNoRouteFound:count 0
attr interpolationmode none
attr recordingmode count
attr source packetDropReasonIsNoRouteFound(packetDropped)
attr title "packet drop: no route found, count"
scalar Ethnet.client3.ipv4.ip packetDropNoRouteFound:sum(packetBytes) 0
attr interpolationmode none
attr recordingmode sum(packetBytes)
attr source packetDropReasonIsNoRouteFound(packetDropped)
attr title "packet drop: no route found, sum(packetBytes)"
scalar Ethnet.client3.ipv4.ip packetDropUndefined:count 0
attr interpolationmode none
attr recordingmode count
attr source packetDropReasonIsUndefined(packetDropped)
attr title "packet drop: undefined, count"
scalar Ethnet.client3.ipv4.ip packetDropUndefined:sum(packetBytes) 0
attr interpolationmode none
attr recordingmode sum(packetBytes)
attr source packetDropReasonIsUndefined(packetDropped)
attr title "packet drop: undefined, sum(packetBytes)"
par Ethnet.client3.ipv4.arp typename "\"inet.networklayer.arp.ipv4.Arp\""
par Ethnet.client3.ipv4.arp interfaceTableModule "\"Ethnet.client3.interfaceTable\""
par Ethnet.client3.ipv4.arp routingTableModule "\"Ethnet.client3.ipv4.routingTable\""
par Ethnet.client3.ipv4.arp retryTimeout 1s
attr unit s
par Ethnet.client3.ipv4.arp retryCount 3
par Ethnet.client3.ipv4.arp cacheTimeout 120s
attr unit s
par Ethnet.client3.ipv4.arp proxyArpInterfaces "\"\""
scalar Ethnet.client3.ipv4.arp arpReplySent:count 0
attr recordingmode count
attr source arpReplySent
attr title "ARP replies sent, count"
scalar Ethnet.client3.ipv4.arp arpReplySent:sum(packetBytes) 0
attr recordingmode sum(packetBytes)
attr source arpReplySent
attr title "ARP replies sent, sum(packetBytes)"
scalar Ethnet.client3.ipv4.arp arpRequestSent:count 1
attr recordingmode count
attr source arpRequestSent
attr title "ARP request sent, count"
scalar Ethnet.client3.ipv4.arp arpRequestSent:sum(packetBytes) 28
attr recordingmode sum(packetBytes)
attr source arpRequestSent
attr title "ARP request sent, sum(packetBytes)"
scalar Ethnet.client3.ipv4.arp arpResolutionFailed:count 0
attr recordingmode count
attr title "ARP failed resolutions, count"
scalar Ethnet.client3.ipv4.arp arpResolutionCompleted:count 1
attr recordingmode count
attr title "ARP completed resolutions, count"
scalar Ethnet.client3.ipv4.arp arpResolutionInitiated:count 1
attr recordingmode count
attr title "ARP initiated resolutions, count"
par Ethnet.client3.ipv4.lp typename "\"inet.common.MessageDispatcher\""
par Ethnet.client3.ipv4.lp displayStringTextFormat "\"processed %p pk (%l)\""
par Ethnet.client3.ipv4.lp forwardServiceRegistration true
par Ethnet.client3.ipv4.lp forwardProtocolRegistration true
par Ethnet.client3.ipv4 typename "\"inet.networklayer.ipv4.Ipv4NetworkLayer\""
par Ethnet.client3.ipv4 forwarding false
par Ethnet.client3.ipv4 multicastForwarding false
par Ethnet.client3.ipv4 interfaceTableModule "\"Ethnet.client3.interfaceTable\""
par Ethnet.client3.ipv4 displayStringTextFormat "\"%i\""
par Ethnet.client3.nl typename "\"inet.common.MessageDispatcher\""
par Ethnet.client3.nl displayStringTextFormat "\"processed %p pk (%l)\""
par Ethnet.client3.nl forwardServiceRegistration true
par Ethnet.client3.nl forwardProtocolRegistration true
par Ethnet.client3.udp typename "\"inet.transportlayer.udp.Udp\""
par Ethnet.client3.udp interfaceTableModule "\"Ethnet.client3.interfaceTable\""
par Ethnet.client3.udp icmpModule "\"^.ipv4.icmp\""
par Ethnet.client3.udp icmpv6Module "\"^.ipv6.icmpv6\""
par Ethnet.client3.udp crcMode "\"declared\""
attr enum disabled,declared,computed
par Ethnet.client3.udp defaultMulticastLoop true
scalar Ethnet.client3.udp packetReceived:count 0
attr interpolationmode none
attr recordingmode count
attr source packetReceived
attr title "packets received, count"
scalar Ethnet.client3.udp packetReceived:sum(packetBytes) 0
attr interpolationmode none
attr recordingmode sum(packetBytes)
attr source packetReceived
attr title "packets received, sum(packetBytes)"
scalar Ethnet.client3.udp packetSent:count 0
attr interpolationmode none
attr recordingmode count
attr source packetSent
attr title "packets sent, count"
scalar Ethnet.client3.udp packetSent:sum(packetBytes) 0
attr interpolationmode none
attr recordingmode sum(packetBytes)
attr source packetSent
attr title "packets sent, sum(packetBytes)"
scalar Ethnet.client3.udp passedUpPk:count 0
attr interpolationmode none
attr recordingmode count
attr source packetSentToUpper
attr title "packets passed up, count"
scalar Ethnet.client3.udp droppedPkWrongPort:count 0
attr interpolationmode none
attr recordingmode count
attr source packetDropReasonIsNoPortFound(packetDropped)
attr title "packets dropped (wrong port), count"
scalar Ethnet.client3.udp droppedPkBadChecksum:count 0
attr interpolationmode none
attr recordingmode count
attr source packetDropReasonIsIncorrectlyReceived(packetDropped)
attr title "packets dropped (checksum error), count"
par Ethnet.client3.tcp.conn-11 typename "\"inet.transportlayer.tcp.TcpConnection\""
par Ethnet.client3.tcp typename "\"inet.transportlayer.tcp.Tcp\""
par Ethnet.client3.tcp crcMode "\"declared\""
attr enum declared,computed
par Ethnet.client3.tcp advertisedWindow 7504
par Ethnet.client3.tcp delayedAcksEnabled false
par Ethnet.client3.tcp nagleEnabled true
par Ethnet.client3.tcp limitedTransmitEnabled false
par Ethnet.client3.tcp increasedIWEnabled false
par Ethnet.client3.tcp sackSupport false
par Ethnet.client3.tcp windowScalingSupport false
par Ethnet.client3.tcp windowScalingFactor -1
par Ethnet.client3.tcp timestampSupport false
par Ethnet.client3.tcp mss 536
par Ethnet.client3.tcp msl 120s
attr unit s
par Ethnet.client3.tcp tcpAlgorithmClass "\"TcpReno\""
attr enum TcpVegas,TcpWestwood,TcpNewReno,TcpReno,TcpTahoe,TcpNoCongestionControl
par Ethnet.client3.tcp useDataNotification false
par Ethnet.client3.tcp dupthresh 3
par Ethnet.client3.tcp initialSsthresh 4294967295
par Ethnet.client3.tcp stopOperationExtraTime 0s
attr unit s
par Ethnet.client3.tcp stopOperationTimeout 2s
attr unit s
par Ethnet.client3.tcp ecnWillingness false
par Ethnet.client3.tcp dctcpGamma 0.0625
par Ethnet.client3.tn typename "\"inet.common.MessageDispatcher\""
par Ethnet.client3.tn displayStringTextFormat "\"processed %p pk (%l)\""
par Ethnet.client3.tn forwardServiceRegistration true
par Ethnet.client3.tn forwardProtocolRegistration true
par Ethnet.client3.app[0] typename "\"inet.applications.tcpapp.TcpSessionApp\""
par Ethnet.client3.app[0] localAddress "\"\""
par Ethnet.client3.app[0] localPort -1
par Ethnet.client3.app[0] active true
par Ethnet.client3.app[0] connectAddress "\"server\""
par Ethnet.client3.app[0] connectPort 1003
par Ethnet.client3.app[0] dataTransferMode "\"bytecount\""
attr enum bytecount,object,bytestream
par Ethnet.client3.app[0] tOpen 1s
attr unit s
par Ethnet.client3.app[0] tSend 1s
attr unit s
par Ethnet.client3.app[0] sendBytes 1000000B
attr unit B
par Ethnet.client3.app[0] sendScript "\"\""
par Ethnet.client3.app[0] tClose 2s
attr unit s
par Ethnet.client3.app[0] timeToLive -1
par Ethnet.client3.app[0] dscp -1
par Ethnet.client3.app[0] tos -1
par Ethnet.client3.app[0] stopOperationExtraTime -1s
attr unit s
par Ethnet.client3.app[0] stopOperationTimeout 2s
attr unit s
scalar Ethnet.client3.app[0] bytesRcvd 1000000
scalar Ethnet.client3.app[0] bytesSent 1000000
scalar Ethnet.client3.app[0] packetReceived:count 1866
attr interpolationmode none
attr recordingmode count
attr source packetReceived
attr title "packets received, count"
scalar Ethnet.client3.app[0] packetReceived:sum(packetBytes) 1000000
attr interpolationmode none
attr recordingmode sum(packetBytes)
attr source packetReceived
attr title "packets received, sum(packetBytes)"
statistic Ethnet.client3.app[0] endToEndDelay:histogram
field count 1866
field mean 0.052723818724545
field stddev 0.030091765151554
field min 0.00010986
field max 0.10473972
field sum 98.38264574
field sqrsum 6.875893004968
attr interpolationmode none
attr recordingmode histogram
attr source dataAge(packetReceived)
attr title "end-to-end delay"
attr unit s
bin	-inf	0
bin	0	25
bin	0.002	35
bin	0.004	37
bin	0.006	35
bin	0.008	37
bin	0.01	35
bin	0.012	35
bin	0.014	36
bin	0.016	35
bin	0.018	37
bin	0.02	35
bin	0.022	37
bin	0.024	35
bin	0.026	37
bin	0.028	35
bin	0.03	35
bin	0.032	37
bin	0.034	35
bin	0.036	37
bin	0.038	35
bin	0.04	37
bin	0.042	35
bin	0.044	36
bin	0.046	35
bin	0.048	35
bin	0.05	37
bin	0.052	35
bin	0.054	37
bin	0.056	35
bin	0.058	37
bin	0.06	35
bin	0.062	36
bin	0.064	36
bin	0.066	35
bin	0.068	37
bin	0.07	35
bin	0.072	37
bin	0.074	34
bin	0.076	37
bin	0.078	35
bin	0.08	36
bin	0.082	36
bin	0.084	35
bin	0.086	37
bin	0.088	35
bin	0.09	37
bin	0.092	35
bin	0.094	37
bin	0.096	35
bin	0.098	35
bin	0.1	37
bin	0.102	35
bin	0.104	15
bin	0.106	0
statistic Ethnet.client3.app[0] endToEndDelay:weightedHistogram
field count 1866
field mean 0.05271466392592
field stddev 0.030086495213111
field min 0.00010986
field max 0.10473972
field weights 8000000
field weightedSum 421717.31140736
field sqrSumWeights 34299944960
field weightedSqrSum 29468.382869507
attr interpolationmode none
attr recordingmode weightedHistogram
attr source dataAge(packetReceived)
attr title "end-to-end delay, weightedHistogram"
attr unit s
bin	-inf	0
bin	0	107200
bin	0.002	150080
bin	0.004	158656
bin	0.006	150080
bin	0.008	158656
bin	0.01	150080
bin	0.012	150080
bin	0.014	154368
bin	0.016	150080
bin	0.018	158656
bin	0.02	150080
bin	0.022	158656
bin	0.024	150080
bin	0.026	158656
bin	0.028	150080
bin	0.03	150080
bin	0.032	158656
bin	0.034	150080
bin	0.036	158656
bin	0.038	150080
bin	0.04	158656
bin	0.042	150080
bin	0.044	154368
bin	0.046	150080
bin	0.048	150080
bin	0.05	158656
bin	0.052	150080
bin	0.054	158656
bin	0.056	150080
bin	0.058	158656
bin	0.06	150080
bin	0.062	154368
bin	0.064	154368
bin	0.066	150080
bin	0.068	158656
bin	0.07	150080
bin	0.072	158656
bin	0.074	145792
bin	0.076	158656
bin	0.078	150080
bin	0.08	154368
bin	0.082	154368
bin	0.084	150080
bin	0.086	158656
bin	0.088	150080
bin	0.09	158656
bin	0.092	150080
bin	0.094	158656
bin	0.096	150080
bin	0.098	150080
bin	0.1	158656
bin	0.102	150080
bin	0.104	62912
bin	0.106	0
scalar Ethnet.client3.app[0] packetSent:count 1
attr interpolationmode none
attr recordingmode count
attr source packetSent
attr title "packets sent, count"
scalar Ethnet.client3.app[0] packetSent:sum(packetBytes) 1000000
attr interpolationmode none
attr recordingmode sum(packetBytes)
attr source packetSent
attr title "packets sent, sum(packetBytes)"
par Ethnet.client3.at typename "\"inet.common.MessageDispatcher\""
par Ethnet.client3.at displayStringTextFormat "\"processed %p pk (%l)\""
par Ethnet.client3.at forwardServiceRegistration true
par Ethnet.client3.at forwardProtocolRegistration true
par Ethnet.client3 typename "\"inet.node.inet.StandardHost\""
par Ethnet.client3 hasStatus false
par Ethnet.client3 osgModel "\"\""
par Ethnet.client3 osgModelColor "\"\""
par Ethnet.client3 canvasImage "\"\""
par Ethnet.client3 canvasImageColor "\"\""
par Ethnet.client3 recordPcap false
par Ethnet.client3 numPcapRecorders 0
par Ethnet.client3 numLoInterfaces 1
par Ethnet.client3 numWlanInterfaces 0
par Ethnet.client3 numEthInterfaces 0
par Ethnet.client3 numPppInterfaces 0
par Ethnet.client3 numTunInterfaces 0
par Ethnet.client3 numVirtInterfaces 0
par Ethnet.client3 fcsMode "\"declared\""
attr enum declared,computed
par Ethnet.client3 hasIpv4 true
par Ethnet.client3 hasIpv6 false
par Ethnet.client3 hasGn false
par Ethnet.client3 forwarding false
par Ethnet.client3 multicastForwarding false
par Ethnet.client3 hasUdp true
par Ethnet.client3 hasTcp true
par Ethnet.client3 hasSctp false
par Ethnet.client3 numApps 1
par Ethnet typename "\"ethnet.simulations.Ethnet\""

